/*--------------------------------*- C++ -*----------------------------------*\
| =========                 |                                                 |
| \\      /  F ield         | OpenFOAM: The Open Source CFD Toolbox           |
|  \\    /   O peration     | Version:  5.x                                   |
|   \\  /    A nd           | Web:      www.OpenFOAM.org                      |
|    \\/     M anipulation  |                                                 |
\*---------------------------------------------------------------------------*/
FoamFile
{
    version     2.0;
    format      ascii;
    class       volScalarField;
    location    "constant";
    object      cy;
}
// * * * * * * * * * * * * * * * * * * * * * * * * * * * * * * * * * * * * * //

dimensions      [0 1 0 0 0 0 0];

internalField   nonuniform List<scalar> 
130824
(
0.0191154
0.0192528
0.0194039
0.0195701
0.0197529
0.019954
0.0201753
0.0204186
0.0206863
0.0209807
0.0213046
0.0216609
0.0220528
0.0224839
0.0229582
0.0234798
0.0240536
0.0246848
0.0253791
0.0261428
0.0269829
0.027907
0.0289235
0.0300417
0.0312717
0.0326247
0.034113
0.0357501
0.0375509
0.0395319
0.0417109
0.0441078
0.0467444
0.0496446
0.0528349
0.0563442
0.0602045
0.0644508
0.0688992
0.0731455
0.0770058
0.0805151
0.0837054
0.0866056
0.0892422
0.0916391
0.0938181
0.0957991
0.0975999
0.099237
0.100725
0.102078
0.103308
0.104426
0.105443
0.106367
0.107207
0.107971
0.108665
0.109296
0.10987
0.110392
0.110866
0.111297
0.111689
0.112045
0.112369
0.112664
0.112931
0.113175
0.113396
0.113597
0.11378
0.113946
0.114097
0.114235
0.0191154
0.0192528
0.0194039
0.0195701
0.0197529
0.019954
0.0201753
0.0204186
0.0206863
0.0209807
0.0213046
0.0216609
0.0220528
0.0224839
0.0229582
0.0234798
0.0240536
0.0246848
0.0253791
0.0261428
0.0269829
0.027907
0.0289235
0.0300417
0.0312717
0.0326247
0.034113
0.0357501
0.0375509
0.0395319
0.0417109
0.0441078
0.0467444
0.0496446
0.0528349
0.0563442
0.0602045
0.0644508
0.0688992
0.0731455
0.0770058
0.0805151
0.0837054
0.0866056
0.0892422
0.0916391
0.0938181
0.0957991
0.0975999
0.099237
0.100725
0.102078
0.103308
0.104426
0.105443
0.106367
0.107207
0.107971
0.108665
0.109296
0.10987
0.110392
0.110866
0.111297
0.111689
0.112045
0.112369
0.112664
0.112931
0.113175
0.113396
0.113597
0.11378
0.113946
0.114097
0.114235
0.0191154
0.0192528
0.0194039
0.0195701
0.0197529
0.019954
0.0201753
0.0204186
0.0206863
0.0209807
0.0213046
0.0216609
0.0220528
0.0224839
0.0229582
0.0234798
0.0240536
0.0246848
0.0253791
0.0261428
0.0269829
0.027907
0.0289235
0.0300417
0.0312717
0.0326247
0.034113
0.0357501
0.0375509
0.0395319
0.0417109
0.0441078
0.0467444
0.0496446
0.0528349
0.0563442
0.0602045
0.0644508
0.0688992
0.0731455
0.0770058
0.0805151
0.0837054
0.0866056
0.0892422
0.0916391
0.0938181
0.0957991
0.0975999
0.099237
0.100725
0.102078
0.103308
0.104426
0.105443
0.106367
0.107207
0.107971
0.108665
0.109296
0.10987
0.110392
0.110866
0.111297
0.111689
0.112045
0.112369
0.112664
0.112931
0.113175
0.113396
0.113597
0.11378
0.113946
0.114097
0.114235
0.0191154
0.0192528
0.0194039
0.0195701
0.0197529
0.019954
0.0201753
0.0204186
0.0206863
0.0209807
0.0213046
0.0216609
0.0220528
0.0224839
0.0229582
0.0234798
0.0240536
0.0246848
0.0253791
0.0261428
0.0269829
0.027907
0.0289235
0.0300417
0.0312717
0.0326247
0.034113
0.0357501
0.0375509
0.0395319
0.0417109
0.0441078
0.0467444
0.0496446
0.0528349
0.0563442
0.0602045
0.0644508
0.0688992
0.0731455
0.0770058
0.0805151
0.0837054
0.0866056
0.0892422
0.0916391
0.0938181
0.0957991
0.0975999
0.099237
0.100725
0.102078
0.103308
0.104426
0.105443
0.106367
0.107207
0.107971
0.108665
0.109296
0.10987
0.110392
0.110866
0.111297
0.111689
0.112045
0.112369
0.112664
0.112931
0.113175
0.113396
0.113597
0.11378
0.113946
0.114097
0.114235
0.0191154
0.0192528
0.0194039
0.0195701
0.0197529
0.019954
0.0201753
0.0204186
0.0206863
0.0209807
0.0213046
0.0216609
0.0220528
0.0224839
0.0229582
0.0234798
0.0240536
0.0246848
0.0253791
0.0261428
0.0269829
0.027907
0.0289235
0.0300417
0.0312717
0.0326247
0.034113
0.0357501
0.0375509
0.0395319
0.0417109
0.0441078
0.0467444
0.0496446
0.0528349
0.0563442
0.0602045
0.0644508
0.0688992
0.0731455
0.0770058
0.0805151
0.0837054
0.0866056
0.0892422
0.0916391
0.0938181
0.0957991
0.0975999
0.099237
0.100725
0.102078
0.103308
0.104426
0.105443
0.106367
0.107207
0.107971
0.108665
0.109296
0.10987
0.110392
0.110866
0.111297
0.111689
0.112045
0.112369
0.112664
0.112931
0.113175
0.113396
0.113597
0.11378
0.113946
0.114097
0.114235
0.0191154
0.0192528
0.0194039
0.0195701
0.0197529
0.019954
0.0201753
0.0204186
0.0206863
0.0209807
0.0213046
0.0216609
0.0220528
0.0224839
0.0229582
0.0234798
0.0240536
0.0246848
0.0253791
0.0261428
0.0269829
0.027907
0.0289235
0.0300417
0.0312717
0.0326247
0.034113
0.0357501
0.0375509
0.0395319
0.0417109
0.0441078
0.0467444
0.0496446
0.0528349
0.0563442
0.0602045
0.0644508
0.0688992
0.0731455
0.0770058
0.0805151
0.0837054
0.0866056
0.0892422
0.0916391
0.0938181
0.0957991
0.0975999
0.099237
0.100725
0.102078
0.103308
0.104426
0.105443
0.106367
0.107207
0.107971
0.108665
0.109296
0.10987
0.110392
0.110866
0.111297
0.111689
0.112045
0.112369
0.112664
0.112931
0.113175
0.113396
0.113597
0.11378
0.113946
0.114097
0.114235
0.0191154
0.0192528
0.0194039
0.0195701
0.0197529
0.019954
0.0201753
0.0204186
0.0206863
0.0209807
0.0213046
0.0216609
0.0220528
0.0224839
0.0229582
0.0234798
0.0240536
0.0246848
0.0253791
0.0261428
0.0269829
0.027907
0.0289235
0.0300417
0.0312717
0.0326247
0.034113
0.0357501
0.0375509
0.0395319
0.0417109
0.0441078
0.0467444
0.0496446
0.0528349
0.0563442
0.0602045
0.0644508
0.0688992
0.0731455
0.0770058
0.0805151
0.0837054
0.0866056
0.0892422
0.0916391
0.0938181
0.0957991
0.0975999
0.099237
0.100725
0.102078
0.103308
0.104426
0.105443
0.106367
0.107207
0.107971
0.108665
0.109296
0.10987
0.110392
0.110866
0.111297
0.111689
0.112045
0.112369
0.112664
0.112931
0.113175
0.113396
0.113597
0.11378
0.113946
0.114097
0.114235
0.0191154
0.0192528
0.0194039
0.0195701
0.0197529
0.019954
0.0201753
0.0204186
0.0206863
0.0209807
0.0213046
0.0216609
0.0220528
0.0224839
0.0229582
0.0234798
0.0240536
0.0246848
0.0253791
0.0261428
0.0269829
0.027907
0.0289235
0.0300417
0.0312717
0.0326247
0.034113
0.0357501
0.0375509
0.0395319
0.0417109
0.0441078
0.0467444
0.0496446
0.0528349
0.0563442
0.0602045
0.0644508
0.0688992
0.0731455
0.0770058
0.0805151
0.0837054
0.0866056
0.0892422
0.0916391
0.0938181
0.0957991
0.0975999
0.099237
0.100725
0.102078
0.103308
0.104426
0.105443
0.106367
0.107207
0.107971
0.108665
0.109296
0.10987
0.110392
0.110866
0.111297
0.111689
0.112045
0.112369
0.112664
0.112931
0.113175
0.113396
0.113597
0.11378
0.113946
0.114097
0.114235
0.0191154
0.0192528
0.0194039
0.0195701
0.0197529
0.019954
0.0201753
0.0204186
0.0206863
0.0209807
0.0213046
0.0216609
0.0220528
0.0224839
0.0229582
0.0234798
0.0240536
0.0246848
0.0253791
0.0261428
0.0269829
0.027907
0.0289235
0.0300417
0.0312717
0.0326247
0.034113
0.0357501
0.0375509
0.0395319
0.0417109
0.0441078
0.0467444
0.0496446
0.0528349
0.0563442
0.0602045
0.0644508
0.0688992
0.0731455
0.0770058
0.0805151
0.0837054
0.0866056
0.0892422
0.0916391
0.0938181
0.0957991
0.0975999
0.099237
0.100725
0.102078
0.103308
0.104426
0.105443
0.106367
0.107207
0.107971
0.108665
0.109296
0.10987
0.110392
0.110866
0.111297
0.111689
0.112045
0.112369
0.112664
0.112931
0.113175
0.113396
0.113597
0.11378
0.113946
0.114097
0.114235
0.0191154
0.0192528
0.0194039
0.0195701
0.0197529
0.019954
0.0201753
0.0204186
0.0206863
0.0209807
0.0213046
0.0216609
0.0220528
0.0224839
0.0229582
0.0234798
0.0240536
0.0246848
0.0253791
0.0261428
0.0269829
0.027907
0.0289235
0.0300417
0.0312717
0.0326247
0.034113
0.0357501
0.0375509
0.0395319
0.0417109
0.0441078
0.0467444
0.0496446
0.0528349
0.0563442
0.0602045
0.0644508
0.0688992
0.0731455
0.0770058
0.0805151
0.0837054
0.0866056
0.0892422
0.0916391
0.0938181
0.0957991
0.0975999
0.099237
0.100725
0.102078
0.103308
0.104426
0.105443
0.106367
0.107207
0.107971
0.108665
0.109296
0.10987
0.110392
0.110866
0.111297
0.111689
0.112045
0.112369
0.112664
0.112931
0.113175
0.113396
0.113597
0.11378
0.113946
0.114097
0.114235
0.0191154
0.0192528
0.0194039
0.0195701
0.0197529
0.019954
0.0201753
0.0204186
0.0206863
0.0209807
0.0213046
0.0216609
0.0220528
0.0224839
0.0229582
0.0234798
0.0240536
0.0246848
0.0253791
0.0261428
0.0269829
0.027907
0.0289235
0.0300417
0.0312717
0.0326247
0.034113
0.0357501
0.0375509
0.0395319
0.0417109
0.0441078
0.0467444
0.0496446
0.0528349
0.0563442
0.0602045
0.0644508
0.0688992
0.0731455
0.0770058
0.0805151
0.0837054
0.0866056
0.0892422
0.0916391
0.0938181
0.0957991
0.0975999
0.099237
0.100725
0.102078
0.103308
0.104426
0.105443
0.106367
0.107207
0.107971
0.108665
0.109296
0.10987
0.110392
0.110866
0.111297
0.111689
0.112045
0.112369
0.112664
0.112931
0.113175
0.113396
0.113597
0.11378
0.113946
0.114097
0.114235
0.0191154
0.0192528
0.0194039
0.0195701
0.0197529
0.019954
0.0201753
0.0204186
0.0206863
0.0209807
0.0213046
0.0216609
0.0220528
0.0224839
0.0229582
0.0234798
0.0240536
0.0246848
0.0253791
0.0261428
0.0269829
0.027907
0.0289235
0.0300417
0.0312717
0.0326247
0.034113
0.0357501
0.0375509
0.0395319
0.0417109
0.0441078
0.0467444
0.0496446
0.0528349
0.0563442
0.0602045
0.0644508
0.0688992
0.0731455
0.0770058
0.0805151
0.0837054
0.0866056
0.0892422
0.0916391
0.0938181
0.0957991
0.0975999
0.099237
0.100725
0.102078
0.103308
0.104426
0.105443
0.106367
0.107207
0.107971
0.108665
0.109296
0.10987
0.110392
0.110866
0.111297
0.111689
0.112045
0.112369
0.112664
0.112931
0.113175
0.113396
0.113597
0.11378
0.113946
0.114097
0.114235
0.0191154
0.0192528
0.0194039
0.0195701
0.0197529
0.019954
0.0201753
0.0204186
0.0206863
0.0209807
0.0213046
0.0216609
0.0220528
0.0224839
0.0229582
0.0234798
0.0240536
0.0246848
0.0253791
0.0261428
0.0269829
0.027907
0.0289235
0.0300417
0.0312717
0.0326247
0.034113
0.0357501
0.0375509
0.0395319
0.0417109
0.0441078
0.0467444
0.0496446
0.0528349
0.0563442
0.0602045
0.0644508
0.0688992
0.0731455
0.0770058
0.0805151
0.0837054
0.0866056
0.0892422
0.0916391
0.0938181
0.0957991
0.0975999
0.099237
0.100725
0.102078
0.103308
0.104426
0.105443
0.106367
0.107207
0.107971
0.108665
0.109296
0.10987
0.110392
0.110866
0.111297
0.111689
0.112045
0.112369
0.112664
0.112931
0.113175
0.113396
0.113597
0.11378
0.113946
0.114097
0.114235
0.0191154
0.0192528
0.0194039
0.0195701
0.0197529
0.019954
0.0201753
0.0204186
0.0206863
0.0209807
0.0213046
0.0216609
0.0220528
0.0224839
0.0229582
0.0234798
0.0240536
0.0246848
0.0253791
0.0261428
0.0269829
0.027907
0.0289235
0.0300417
0.0312717
0.0326247
0.034113
0.0357501
0.0375509
0.0395319
0.0417109
0.0441078
0.0467444
0.0496446
0.0528349
0.0563442
0.0602045
0.0644508
0.0688992
0.0731455
0.0770058
0.0805151
0.0837054
0.0866056
0.0892422
0.0916391
0.0938181
0.0957991
0.0975999
0.099237
0.100725
0.102078
0.103308
0.104426
0.105443
0.106367
0.107207
0.107971
0.108665
0.109296
0.10987
0.110392
0.110866
0.111297
0.111689
0.112045
0.112369
0.112664
0.112931
0.113175
0.113396
0.113597
0.11378
0.113946
0.114097
0.114235
0.0191154
0.0192528
0.0194039
0.0195701
0.0197529
0.019954
0.0201753
0.0204186
0.0206863
0.0209807
0.0213046
0.0216609
0.0220528
0.0224839
0.0229582
0.0234798
0.0240536
0.0246848
0.0253791
0.0261428
0.0269829
0.027907
0.0289235
0.0300417
0.0312717
0.0326247
0.034113
0.0357501
0.0375509
0.0395319
0.0417109
0.0441078
0.0467444
0.0496446
0.0528349
0.0563442
0.0602045
0.0644508
0.0688992
0.0731455
0.0770058
0.0805151
0.0837054
0.0866056
0.0892422
0.0916391
0.0938181
0.0957991
0.0975999
0.099237
0.100725
0.102078
0.103308
0.104426
0.105443
0.106367
0.107207
0.107971
0.108665
0.109296
0.10987
0.110392
0.110866
0.111297
0.111689
0.112045
0.112369
0.112664
0.112931
0.113175
0.113396
0.113597
0.11378
0.113946
0.114097
0.114235
0.0191154
0.0192528
0.0194039
0.0195701
0.0197529
0.019954
0.0201753
0.0204186
0.0206863
0.0209807
0.0213046
0.0216609
0.0220528
0.0224839
0.0229582
0.0234798
0.0240536
0.0246848
0.0253791
0.0261428
0.0269829
0.027907
0.0289235
0.0300417
0.0312717
0.0326247
0.034113
0.0357501
0.0375509
0.0395319
0.0417109
0.0441078
0.0467444
0.0496446
0.0528349
0.0563442
0.0602045
0.0644508
0.0688992
0.0731455
0.0770058
0.0805151
0.0837054
0.0866056
0.0892422
0.0916391
0.0938181
0.0957991
0.0975999
0.099237
0.100725
0.102078
0.103308
0.104426
0.105443
0.106367
0.107207
0.107971
0.108665
0.109296
0.10987
0.110392
0.110866
0.111297
0.111689
0.112045
0.112369
0.112664
0.112931
0.113175
0.113396
0.113597
0.11378
0.113946
0.114097
0.114235
0.0191154
0.0192528
0.0194039
0.0195701
0.0197529
0.019954
0.0201753
0.0204186
0.0206863
0.0209807
0.0213046
0.0216609
0.0220528
0.0224839
0.0229582
0.0234798
0.0240536
0.0246848
0.0253791
0.0261428
0.0269829
0.027907
0.0289235
0.0300417
0.0312717
0.0326247
0.034113
0.0357501
0.0375509
0.0395319
0.0417109
0.0441078
0.0467444
0.0496446
0.0528349
0.0563442
0.0602045
0.0644508
0.0688992
0.0731455
0.0770058
0.0805151
0.0837054
0.0866056
0.0892422
0.0916391
0.0938181
0.0957991
0.0975999
0.099237
0.100725
0.102078
0.103308
0.104426
0.105443
0.106367
0.107207
0.107971
0.108665
0.109296
0.10987
0.110392
0.110866
0.111297
0.111689
0.112045
0.112369
0.112664
0.112931
0.113175
0.113396
0.113597
0.11378
0.113946
0.114097
0.114235
0.0191154
0.0192528
0.0194039
0.0195701
0.0197529
0.019954
0.0201753
0.0204186
0.0206863
0.0209807
0.0213046
0.0216609
0.0220528
0.0224839
0.0229582
0.0234798
0.0240536
0.0246848
0.0253791
0.0261428
0.0269829
0.027907
0.0289235
0.0300417
0.0312717
0.0326247
0.034113
0.0357501
0.0375509
0.0395319
0.0417109
0.0441078
0.0467444
0.0496446
0.0528349
0.0563442
0.0602045
0.0644508
0.0688992
0.0731455
0.0770058
0.0805151
0.0837054
0.0866056
0.0892422
0.0916391
0.0938181
0.0957991
0.0975999
0.099237
0.100725
0.102078
0.103308
0.104426
0.105443
0.106367
0.107207
0.107971
0.108665
0.109296
0.10987
0.110392
0.110866
0.111297
0.111689
0.112045
0.112369
0.112664
0.112931
0.113175
0.113396
0.113597
0.11378
0.113946
0.114097
0.114235
0.0191154
0.0192528
0.0194039
0.0195701
0.0197529
0.019954
0.0201753
0.0204186
0.0206863
0.0209807
0.0213046
0.0216609
0.0220528
0.0224839
0.0229582
0.0234798
0.0240536
0.0246848
0.0253791
0.0261428
0.0269829
0.027907
0.0289235
0.0300417
0.0312717
0.0326247
0.034113
0.0357501
0.0375509
0.0395319
0.0417109
0.0441078
0.0467444
0.0496446
0.0528349
0.0563442
0.0602045
0.0644508
0.0688992
0.0731455
0.0770058
0.0805151
0.0837054
0.0866056
0.0892422
0.0916391
0.0938181
0.0957991
0.0975999
0.099237
0.100725
0.102078
0.103308
0.104426
0.105443
0.106367
0.107207
0.107971
0.108665
0.109296
0.10987
0.110392
0.110866
0.111297
0.111689
0.112045
0.112369
0.112664
0.112931
0.113175
0.113396
0.113597
0.11378
0.113946
0.114097
0.114235
0.0191154
0.0192528
0.0194039
0.0195701
0.0197529
0.019954
0.0201753
0.0204186
0.0206863
0.0209807
0.0213046
0.0216609
0.0220528
0.0224839
0.0229582
0.0234798
0.0240536
0.0246848
0.0253791
0.0261428
0.0269829
0.027907
0.0289235
0.0300417
0.0312717
0.0326247
0.034113
0.0357501
0.0375509
0.0395319
0.0417109
0.0441078
0.0467444
0.0496446
0.0528349
0.0563442
0.0602045
0.0644508
0.0688992
0.0731455
0.0770058
0.0805151
0.0837054
0.0866056
0.0892422
0.0916391
0.0938181
0.0957991
0.0975999
0.099237
0.100725
0.102078
0.103308
0.104426
0.105443
0.106367
0.107207
0.107971
0.108665
0.109296
0.10987
0.110392
0.110866
0.111297
0.111689
0.112045
0.112369
0.112664
0.112931
0.113175
0.113396
0.113597
0.11378
0.113946
0.114097
0.114235
0.0191154
0.0192528
0.0194039
0.0195701
0.0197529
0.019954
0.0201753
0.0204186
0.0206863
0.0209807
0.0213046
0.0216609
0.0220528
0.0224839
0.0229582
0.0234798
0.0240536
0.0246848
0.0253791
0.0261428
0.0269829
0.027907
0.0289235
0.0300417
0.0312717
0.0326247
0.034113
0.0357501
0.0375509
0.0395319
0.0417109
0.0441078
0.0467444
0.0496446
0.0528349
0.0563442
0.0602045
0.0644508
0.0688992
0.0731455
0.0770058
0.0805151
0.0837054
0.0866056
0.0892422
0.0916391
0.0938181
0.0957991
0.0975999
0.099237
0.100725
0.102078
0.103308
0.104426
0.105443
0.106367
0.107207
0.107971
0.108665
0.109296
0.10987
0.110392
0.110866
0.111297
0.111689
0.112045
0.112369
0.112664
0.112931
0.113175
0.113396
0.113597
0.11378
0.113946
0.114097
0.114235
0.0191154
0.0192528
0.0194039
0.0195701
0.0197529
0.019954
0.0201753
0.0204186
0.0206863
0.0209807
0.0213046
0.0216609
0.0220528
0.0224839
0.0229582
0.0234798
0.0240536
0.0246848
0.0253791
0.0261428
0.0269829
0.027907
0.0289235
0.0300417
0.0312717
0.0326247
0.034113
0.0357501
0.0375509
0.0395319
0.0417109
0.0441078
0.0467444
0.0496446
0.0528349
0.0563442
0.0602045
0.0644508
0.0688992
0.0731455
0.0770058
0.0805151
0.0837054
0.0866056
0.0892422
0.0916391
0.0938181
0.0957991
0.0975999
0.099237
0.100725
0.102078
0.103308
0.104426
0.105443
0.106367
0.107207
0.107971
0.108665
0.109296
0.10987
0.110392
0.110866
0.111297
0.111689
0.112045
0.112369
0.112664
0.112931
0.113175
0.113396
0.113597
0.11378
0.113946
0.114097
0.114235
0.0191154
0.0192528
0.0194039
0.0195701
0.0197529
0.019954
0.0201753
0.0204186
0.0206863
0.0209807
0.0213046
0.0216609
0.0220528
0.0224839
0.0229582
0.0234798
0.0240536
0.0246848
0.0253791
0.0261428
0.0269829
0.027907
0.0289235
0.0300417
0.0312717
0.0326247
0.034113
0.0357501
0.0375509
0.0395319
0.0417109
0.0441078
0.0467444
0.0496446
0.0528349
0.0563442
0.0602045
0.0644508
0.0688992
0.0731455
0.0770058
0.0805151
0.0837054
0.0866056
0.0892422
0.0916391
0.0938181
0.0957991
0.0975999
0.099237
0.100725
0.102078
0.103308
0.104426
0.105443
0.106367
0.107207
0.107971
0.108665
0.109296
0.10987
0.110392
0.110866
0.111297
0.111689
0.112045
0.112369
0.112664
0.112931
0.113175
0.113396
0.113597
0.11378
0.113946
0.114097
0.114235
0.0191154
0.0192528
0.0194039
0.0195701
0.0197529
0.019954
0.0201753
0.0204186
0.0206863
0.0209807
0.0213046
0.0216609
0.0220528
0.0224839
0.0229582
0.0234798
0.0240536
0.0246848
0.0253791
0.0261428
0.0269829
0.027907
0.0289235
0.0300417
0.0312717
0.0326247
0.034113
0.0357501
0.0375509
0.0395319
0.0417109
0.0441078
0.0467444
0.0496446
0.0528349
0.0563442
0.0602045
0.0644508
0.0688992
0.0731455
0.0770058
0.0805151
0.0837054
0.0866056
0.0892422
0.0916391
0.0938181
0.0957991
0.0975999
0.099237
0.100725
0.102078
0.103308
0.104426
0.105443
0.106367
0.107207
0.107971
0.108665
0.109296
0.10987
0.110392
0.110866
0.111297
0.111689
0.112045
0.112369
0.112664
0.112931
0.113175
0.113396
0.113597
0.11378
0.113946
0.114097
0.114235
0.0191154
0.0192528
0.0194039
0.0195701
0.0197529
0.019954
0.0201753
0.0204186
0.0206863
0.0209807
0.0213046
0.0216609
0.0220528
0.0224839
0.0229582
0.0234798
0.0240536
0.0246848
0.0253791
0.0261428
0.0269829
0.027907
0.0289235
0.0300417
0.0312717
0.0326247
0.034113
0.0357501
0.0375509
0.0395319
0.0417109
0.0441078
0.0467444
0.0496446
0.0528349
0.0563442
0.0602045
0.0644508
0.0688992
0.0731455
0.0770058
0.0805151
0.0837054
0.0866056
0.0892422
0.0916391
0.0938181
0.0957991
0.0975999
0.099237
0.100725
0.102078
0.103308
0.104426
0.105443
0.106367
0.107207
0.107971
0.108665
0.109296
0.10987
0.110392
0.110866
0.111297
0.111689
0.112045
0.112369
0.112664
0.112931
0.113175
0.113396
0.113597
0.11378
0.113946
0.114097
0.114235
0.0191154
0.0192528
0.0194039
0.0195701
0.0197529
0.019954
0.0201753
0.0204186
0.0206863
0.0209807
0.0213046
0.0216609
0.0220528
0.0224839
0.0229582
0.0234798
0.0240536
0.0246848
0.0253791
0.0261428
0.0269829
0.027907
0.0289235
0.0300417
0.0312717
0.0326247
0.034113
0.0357501
0.0375509
0.0395319
0.0417109
0.0441078
0.0467444
0.0496446
0.0528349
0.0563442
0.0602045
0.0644508
0.0688992
0.0731455
0.0770058
0.0805151
0.0837054
0.0866056
0.0892422
0.0916391
0.0938181
0.0957991
0.0975999
0.099237
0.100725
0.102078
0.103308
0.104426
0.105443
0.106367
0.107207
0.107971
0.108665
0.109296
0.10987
0.110392
0.110866
0.111297
0.111689
0.112045
0.112369
0.112664
0.112931
0.113175
0.113396
0.113597
0.11378
0.113946
0.114097
0.114235
0.0191154
0.0192528
0.0194039
0.0195701
0.0197529
0.019954
0.0201753
0.0204186
0.0206863
0.0209807
0.0213046
0.0216609
0.0220528
0.0224839
0.0229582
0.0234798
0.0240536
0.0246848
0.0253791
0.0261428
0.0269829
0.027907
0.0289235
0.0300417
0.0312717
0.0326247
0.034113
0.0357501
0.0375509
0.0395319
0.0417109
0.0441078
0.0467444
0.0496446
0.0528349
0.0563442
0.0602045
0.0644508
0.0688992
0.0731455
0.0770058
0.0805151
0.0837054
0.0866056
0.0892422
0.0916391
0.0938181
0.0957991
0.0975999
0.099237
0.100725
0.102078
0.103308
0.104426
0.105443
0.106367
0.107207
0.107971
0.108665
0.109296
0.10987
0.110392
0.110866
0.111297
0.111689
0.112045
0.112369
0.112664
0.112931
0.113175
0.113396
0.113597
0.11378
0.113946
0.114097
0.114235
0.0191154
0.0192528
0.0194039
0.0195701
0.0197529
0.019954
0.0201753
0.0204186
0.0206863
0.0209807
0.0213046
0.0216609
0.0220528
0.0224839
0.0229582
0.0234798
0.0240536
0.0246848
0.0253791
0.0261428
0.0269829
0.027907
0.0289235
0.0300417
0.0312717
0.0326247
0.034113
0.0357501
0.0375509
0.0395319
0.0417109
0.0441078
0.0467444
0.0496446
0.0528349
0.0563442
0.0602045
0.0644508
0.0688992
0.0731455
0.0770058
0.0805151
0.0837054
0.0866056
0.0892422
0.0916391
0.0938181
0.0957991
0.0975999
0.099237
0.100725
0.102078
0.103308
0.104426
0.105443
0.106367
0.107207
0.107971
0.108665
0.109296
0.10987
0.110392
0.110866
0.111297
0.111689
0.112045
0.112369
0.112664
0.112931
0.113175
0.113396
0.113597
0.11378
0.113946
0.114097
0.114235
0.0191154
0.0192528
0.0194039
0.0195701
0.0197529
0.019954
0.0201753
0.0204186
0.0206863
0.0209807
0.0213046
0.0216609
0.0220528
0.0224839
0.0229582
0.0234798
0.0240536
0.0246848
0.0253791
0.0261428
0.0269829
0.027907
0.0289235
0.0300417
0.0312717
0.0326247
0.034113
0.0357501
0.0375509
0.0395319
0.0417109
0.0441078
0.0467444
0.0496446
0.0528349
0.0563442
0.0602045
0.0644508
0.0688992
0.0731455
0.0770058
0.0805151
0.0837054
0.0866056
0.0892422
0.0916391
0.0938181
0.0957991
0.0975999
0.099237
0.100725
0.102078
0.103308
0.104426
0.105443
0.106367
0.107207
0.107971
0.108665
0.109296
0.10987
0.110392
0.110866
0.111297
0.111689
0.112045
0.112369
0.112664
0.112931
0.113175
0.113396
0.113597
0.11378
0.113946
0.114097
0.114235
0.0191154
0.0192528
0.0194039
0.0195701
0.0197529
0.019954
0.0201753
0.0204186
0.0206863
0.0209807
0.0213046
0.0216609
0.0220528
0.0224839
0.0229582
0.0234798
0.0240536
0.0246848
0.0253791
0.0261428
0.0269829
0.027907
0.0289235
0.0300417
0.0312717
0.0326247
0.034113
0.0357501
0.0375509
0.0395319
0.0417109
0.0441078
0.0467444
0.0496446
0.0528349
0.0563442
0.0602045
0.0644508
0.0688992
0.0731455
0.0770058
0.0805151
0.0837054
0.0866056
0.0892422
0.0916391
0.0938181
0.0957991
0.0975999
0.099237
0.100725
0.102078
0.103308
0.104426
0.105443
0.106367
0.107207
0.107971
0.108665
0.109296
0.10987
0.110392
0.110866
0.111297
0.111689
0.112045
0.112369
0.112664
0.112931
0.113175
0.113396
0.113597
0.11378
0.113946
0.114097
0.114235
0.0191154
0.0192528
0.0194039
0.0195701
0.0197529
0.019954
0.0201753
0.0204186
0.0206863
0.0209807
0.0213046
0.0216609
0.0220528
0.0224839
0.0229582
0.0234798
0.0240536
0.0246848
0.0253791
0.0261428
0.0269829
0.027907
0.0289235
0.0300417
0.0312717
0.0326247
0.034113
0.0357501
0.0375509
0.0395319
0.0417109
0.0441078
0.0467444
0.0496446
0.0528349
0.0563442
0.0602045
0.0644508
0.0688992
0.0731455
0.0770058
0.0805151
0.0837054
0.0866056
0.0892422
0.0916391
0.0938181
0.0957991
0.0975999
0.099237
0.100725
0.102078
0.103308
0.104426
0.105443
0.106367
0.107207
0.107971
0.108665
0.109296
0.10987
0.110392
0.110866
0.111297
0.111689
0.112045
0.112369
0.112664
0.112931
0.113175
0.113396
0.113597
0.11378
0.113946
0.114097
0.114235
0.0191154
0.0192528
0.0194039
0.0195701
0.0197529
0.019954
0.0201753
0.0204186
0.0206863
0.0209807
0.0213046
0.0216609
0.0220528
0.0224839
0.0229582
0.0234798
0.0240536
0.0246848
0.0253791
0.0261428
0.0269829
0.027907
0.0289235
0.0300417
0.0312717
0.0326247
0.034113
0.0357501
0.0375509
0.0395319
0.0417109
0.0441078
0.0467444
0.0496446
0.0528349
0.0563442
0.0602045
0.0644508
0.0688992
0.0731455
0.0770058
0.0805151
0.0837054
0.0866056
0.0892422
0.0916391
0.0938181
0.0957991
0.0975999
0.099237
0.100725
0.102078
0.103308
0.104426
0.105443
0.106367
0.107207
0.107971
0.108665
0.109296
0.10987
0.110392
0.110866
0.111297
0.111689
0.112045
0.112369
0.112664
0.112931
0.113175
0.113396
0.113597
0.11378
0.113946
0.114097
0.114235
0.0191154
0.0192528
0.0194039
0.0195701
0.0197529
0.019954
0.0201753
0.0204186
0.0206863
0.0209807
0.0213046
0.0216609
0.0220528
0.0224839
0.0229582
0.0234798
0.0240536
0.0246848
0.0253791
0.0261428
0.0269829
0.027907
0.0289235
0.0300417
0.0312717
0.0326247
0.034113
0.0357501
0.0375509
0.0395319
0.0417109
0.0441078
0.0467444
0.0496446
0.0528349
0.0563442
0.0602045
0.0644508
0.0688992
0.0731455
0.0770058
0.0805151
0.0837054
0.0866056
0.0892422
0.0916391
0.0938181
0.0957991
0.0975999
0.099237
0.100725
0.102078
0.103308
0.104426
0.105443
0.106367
0.107207
0.107971
0.108665
0.109296
0.10987
0.110392
0.110866
0.111297
0.111689
0.112045
0.112369
0.112664
0.112931
0.113175
0.113396
0.113597
0.11378
0.113946
0.114097
0.114235
0.0191154
0.0192528
0.0194039
0.0195701
0.0197529
0.019954
0.0201753
0.0204186
0.0206863
0.0209807
0.0213046
0.0216609
0.0220528
0.0224839
0.0229582
0.0234798
0.0240536
0.0246848
0.0253791
0.0261428
0.0269829
0.027907
0.0289235
0.0300417
0.0312717
0.0326247
0.034113
0.0357501
0.0375509
0.0395319
0.0417109
0.0441078
0.0467444
0.0496446
0.0528349
0.0563442
0.0602045
0.0644508
0.0688992
0.0731455
0.0770058
0.0805151
0.0837054
0.0866056
0.0892422
0.0916391
0.0938181
0.0957991
0.0975999
0.099237
0.100725
0.102078
0.103308
0.104426
0.105443
0.106367
0.107207
0.107971
0.108665
0.109296
0.10987
0.110392
0.110866
0.111297
0.111689
0.112045
0.112369
0.112664
0.112931
0.113175
0.113396
0.113597
0.11378
0.113946
0.114097
0.114235
0.0191154
0.0192528
0.0194039
0.0195701
0.0197529
0.019954
0.0201753
0.0204186
0.0206863
0.0209807
0.0213046
0.0216609
0.0220528
0.0224839
0.0229582
0.0234798
0.0240536
0.0246848
0.0253791
0.0261428
0.0269829
0.027907
0.0289235
0.0300417
0.0312717
0.0326247
0.034113
0.0357501
0.0375509
0.0395319
0.0417109
0.0441078
0.0467444
0.0496446
0.0528349
0.0563442
0.0602045
0.0644508
0.0688992
0.0731455
0.0770058
0.0805151
0.0837054
0.0866056
0.0892422
0.0916391
0.0938181
0.0957991
0.0975999
0.099237
0.100725
0.102078
0.103308
0.104426
0.105443
0.106367
0.107207
0.107971
0.108665
0.109296
0.10987
0.110392
0.110866
0.111297
0.111689
0.112045
0.112369
0.112664
0.112931
0.113175
0.113396
0.113597
0.11378
0.113946
0.114097
0.114235
0.0191154
0.0192528
0.0194039
0.0195701
0.0197529
0.019954
0.0201753
0.0204186
0.0206863
0.0209807
0.0213046
0.0216609
0.0220528
0.0224839
0.0229582
0.0234798
0.0240536
0.0246848
0.0253791
0.0261428
0.0269829
0.027907
0.0289235
0.0300417
0.0312717
0.0326247
0.034113
0.0357501
0.0375509
0.0395319
0.0417109
0.0441078
0.0467444
0.0496446
0.0528349
0.0563442
0.0602045
0.0644508
0.0688992
0.0731455
0.0770058
0.0805151
0.0837054
0.0866056
0.0892422
0.0916391
0.0938181
0.0957991
0.0975999
0.099237
0.100725
0.102078
0.103308
0.104426
0.105443
0.106367
0.107207
0.107971
0.108665
0.109296
0.10987
0.110392
0.110866
0.111297
0.111689
0.112045
0.112369
0.112664
0.112931
0.113175
0.113396
0.113597
0.11378
0.113946
0.114097
0.114235
0.0191154
0.0192528
0.0194039
0.0195701
0.0197529
0.019954
0.0201753
0.0204186
0.0206863
0.0209807
0.0213046
0.0216609
0.0220528
0.0224839
0.0229582
0.0234798
0.0240536
0.0246848
0.0253791
0.0261428
0.0269829
0.027907
0.0289235
0.0300417
0.0312717
0.0326247
0.034113
0.0357501
0.0375509
0.0395319
0.0417109
0.0441078
0.0467444
0.0496446
0.0528349
0.0563442
0.0602045
0.0644508
0.0688992
0.0731455
0.0770058
0.0805151
0.0837054
0.0866056
0.0892422
0.0916391
0.0938181
0.0957991
0.0975999
0.099237
0.100725
0.102078
0.103308
0.104426
0.105443
0.106367
0.107207
0.107971
0.108665
0.109296
0.10987
0.110392
0.110866
0.111297
0.111689
0.112045
0.112369
0.112664
0.112931
0.113175
0.113396
0.113597
0.11378
0.113946
0.114097
0.114235
0.0191154
0.0192528
0.0194039
0.0195701
0.0197529
0.019954
0.0201753
0.0204186
0.0206863
0.0209807
0.0213046
0.0216609
0.0220528
0.0224839
0.0229582
0.0234798
0.0240536
0.0246848
0.0253791
0.0261428
0.0269829
0.027907
0.0289235
0.0300417
0.0312717
0.0326247
0.034113
0.0357501
0.0375509
0.0395319
0.0417109
0.0441078
0.0467444
0.0496446
0.0528349
0.0563442
0.0602045
0.0644508
0.0688992
0.0731455
0.0770058
0.0805151
0.0837054
0.0866056
0.0892422
0.0916391
0.0938181
0.0957991
0.0975999
0.099237
0.100725
0.102078
0.103308
0.104426
0.105443
0.106367
0.107207
0.107971
0.108665
0.109296
0.10987
0.110392
0.110866
0.111297
0.111689
0.112045
0.112369
0.112664
0.112931
0.113175
0.113396
0.113597
0.11378
0.113946
0.114097
0.114235
0.0191154
0.0192528
0.0194039
0.0195701
0.0197529
0.019954
0.0201753
0.0204186
0.0206863
0.0209807
0.0213046
0.0216609
0.0220528
0.0224839
0.0229582
0.0234798
0.0240536
0.0246848
0.0253791
0.0261428
0.0269829
0.027907
0.0289235
0.0300417
0.0312717
0.0326247
0.034113
0.0357501
0.0375509
0.0395319
0.0417109
0.0441078
0.0467444
0.0496446
0.0528349
0.0563442
0.0602045
0.0644508
0.0688992
0.0731455
0.0770058
0.0805151
0.0837054
0.0866056
0.0892422
0.0916391
0.0938181
0.0957991
0.0975999
0.099237
0.100725
0.102078
0.103308
0.104426
0.105443
0.106367
0.107207
0.107971
0.108665
0.109296
0.10987
0.110392
0.110866
0.111297
0.111689
0.112045
0.112369
0.112664
0.112931
0.113175
0.113396
0.113597
0.11378
0.113946
0.114097
0.114235
0.0191154
0.0192528
0.0194039
0.0195701
0.0197529
0.019954
0.0201753
0.0204186
0.0206863
0.0209807
0.0213046
0.0216609
0.0220528
0.0224839
0.0229582
0.0234798
0.0240536
0.0246848
0.0253791
0.0261428
0.0269829
0.027907
0.0289235
0.0300417
0.0312717
0.0326247
0.034113
0.0357501
0.0375509
0.0395319
0.0417109
0.0441078
0.0467444
0.0496446
0.0528349
0.0563442
0.0602045
0.0644508
0.0688992
0.0731455
0.0770058
0.0805151
0.0837054
0.0866056
0.0892422
0.0916391
0.0938181
0.0957991
0.0975999
0.099237
0.100725
0.102078
0.103308
0.104426
0.105443
0.106367
0.107207
0.107971
0.108665
0.109296
0.10987
0.110392
0.110866
0.111297
0.111689
0.112045
0.112369
0.112664
0.112931
0.113175
0.113396
0.113597
0.11378
0.113946
0.114097
0.114235
0.0191154