/*--------------------------------*- C++ -*----------------------------------*\
| =========                 |                                                 |
| \\      /  F ield         | OpenFOAM: The Open Source CFD Toolbox           |
|  \\    /   O peration     | Version:  5.x                                   |
|   \\  /    A nd           | Web:      www.OpenFOAM.org                      |
|    \\/     M anipulation  |                                                 |
\*---------------------------------------------------------------------------*/
FoamFile
{
    version     2.0;
    format      ascii;
    class       volScalarField;
    location    "constant";
    object      cy;
}
// * * * * * * * * * * * * * * * * * * * * * * * * * * * * * * * * * * * * * //

dimensions      [0 1 0 0 0 0 0];

internalField   nonuniform List<scalar> 
20540
(
0.0127133
0.0127133
0.0127425
0.0127425
0.012778
0.012778
0.0128208
0.0128208
0.0128727
0.0128727
0.0129354
0.0129354
0.0130113
0.0130113
0.0131031
0.0131031
0.0132141
0.0132141
0.0133485
0.0133485
0.013511
0.013511
0.0137076
0.0137076
0.0139454
0.0139454
0.0142331
0.0142331
0.0145812
0.0145812
0.0150022
0.0150022
0.0155116
0.0155116
0.0161277
0.0161277
0.0168731
0.0168731
0.0177749
0.0177749
0.0188657
0.0188657
0.0201853
0.0201853
0.0217817
0.0217817
0.0237129
0.0237129
0.0260492
0.0260492
0.0288754
0.0288754
0.0322943
0.0322943
0.0364302
0.0364302
0.0414336
0.0414336
0.0474864
0.0474864
0.053975
0.053975
0.060325
0.060325
0.066675
0.066675
0.073025
0.073025
0.0794131
0.0794131
0.0852991
0.0852991
0.0901957
0.0901957
0.0942691
0.0942691
0.0976578
0.0976578
0.100477
0.100477
0.102822
0.102822
0.104773
0.104773
0.106396
0.106396
0.107746
0.107746
0.108869
0.108869
0.109803
0.109803
0.110581
0.110581
0.111227
0.111227
0.111765
0.111765
0.112213
0.112213
0.112585
0.112585
0.112895
0.112895
0.113152
0.113152
0.113367
0.113367
0.113545
0.113545
0.113693
0.113693
0.113817
0.113817
0.113919
0.113919
0.114005
0.114005
0.114076
0.114076
0.114135
0.114135
0.114184
0.114184
0.114225
0.114225
0.114259
0.114259
0.114287
0.114287
0.0127133
0.0127133
0.0127133
0.0127133
0.0127133
0.0127133
0.0127133
0.0127133
0.0127133
0.0127133
0.0127133
0.0127133
0.0127133
0.0127133
0.0127133
0.0127133
0.0127133
0.0127133
0.0127133
0.0127133
0.0127133
0.0127133
0.0127133
0.0127133
0.0127133
0.0127133
0.0127133
0.0127133
0.0127133
0.0127133
0.0127133
0.0127133
0.0127133
0.0127133
0.0127133
0.0127133
0.0127133
0.0127133
0.0127133
0.0127133
0.0127133
0.0127133
0.0127133
0.0127133
0.0127133
0.0127133
0.0127133
0.0127133
0.0127133
0.0127133
0.0127133
0.0127133
0.0127133
0.0127133
0.0127133
0.0127133
0.0127133
0.0127133
0.0127133
0.0127133
0.0127133
0.0127133
0.0127133
0.0127133
0.0127133
0.0127133
0.0127133
0.0127133
0.0127133
0.0127133
0.0127133
0.0127133
0.0127133
0.0127133
0.0127133
0.0127133
0.0127133
0.0127133
0.0127133
0.0127133
0.0127133
0.0127133
0.0127133
0.0127133
0.0127133
0.0127133
0.0127133
0.0127133
0.0127425
0.0127425
0.0127425
0.0127425
0.0127425
0.0127425
0.0127425
0.0127425
0.0127425
0.0127425
0.0127425
0.0127425
0.0127425
0.0127425
0.0127425
0.0127425
0.0127425
0.0127425
0.0127425
0.0127425
0.0127425
0.0127425
0.0127425
0.0127425
0.0127425
0.0127425
0.0127425
0.0127425
0.0127425
0.0127425
0.0127425
0.0127425
0.0127425
0.0127425
0.0127425
0.0127425
0.0127425
0.0127425
0.0127425
0.0127425
0.0127425
0.0127425
0.0127425
0.0127425
0.0127425
0.0127425
0.0127425
0.0127425
0.0127425
0.0127425
0.0127425
0.0127425
0.0127425
0.0127425
0.0127425
0.0127425
0.0127425
0.0127425
0.0127425
0.0127425
0.0127425
0.0127425
0.0127425
0.0127425
0.0127425
0.0127425
0.0127425
0.0127425
0.0127425
0.0127425
0.0127425
0.0127425
0.0127425
0.0127425
0.0127425
0.0127425
0.0127425
0.0127425
0.0127425
0.0127425
0.0127425
0.0127425
0.0127425
0.0127425
0.0127425
0.0127425
0.0127425
0.0127425
0.012778
0.012778
0.012778
0.012778
0.012778
0.012778
0.012778
0.012778
0.012778
0.012778
0.012778
0.012778
0.012778
0.012778
0.012778
0.012778
0.012778
0.012778
0.012778
0.012778
0.012778
0.012778
0.012778
0.012778
0.012778
0.012778
0.012778
0.012778
0.012778
0.012778
0.012778
0.012778
0.012778
0.012778
0.012778
0.012778
0.012778
0.012778
0.012778
0.012778
0.012778
0.012778
0.012778
0.012778
0.012778
0.012778
0.012778
0.012778
0.012778
0.012778
0.012778
0.012778
0.012778
0.012778
0.012778
0.012778
0.012778
0.012778
0.012778
0.012778
0.012778
0.012778
0.012778
0.012778
0.012778
0.012778
0.012778
0.012778
0.012778
0.012778
0.012778
0.012778
0.012778
0.012778
0.012778
0.012778
0.012778
0.012778
0.012778
0.012778
0.012778
0.012778
0.012778
0.012778
0.012778
0.012778
0.012778
0.012778
0.0128208
0.0128208
0.0128208
0.0128208
0.0128208
0.0128208
0.0128208
0.0128208
0.0128208
0.0128208
0.0128208
0.0128208
0.0128208
0.0128208
0.0128208
0.0128208
0.0128208
0.0128208
0.0128208
0.0128208
0.0128208
0.0128208
0.0128208
0.0128208
0.0128208
0.0128208
0.0128208
0.0128208
0.0128208
0.0128208
0.0128208
0.0128208
0.0128208
0.0128208
0.0128208
0.0128208
0.0128208
0.0128208
0.0128208
0.0128208
0.0128208
0.0128208
0.0128208
0.0128208
0.0128208
0.0128208
0.0128208
0.0128208
0.0128208
0.0128208
0.0128208
0.0128208
0.0128208
0.0128208
0.0128208
0.0128208
0.0128208
0.0128208
0.0128208
0.0128208
0.0128208
0.0128208
0.0128208
0.0128208
0.0128208
0.0128208
0.0128208
0.0128208
0.0128208
0.0128208
0.0128208
0.0128208
0.0128208
0.0128208
0.0128208
0.0128208
0.0128208
0.0128208
0.0128208
0.0128208
0.0128208
0.0128208
0.0128208
0.0128208
0.0128208
0.0128208
0.0128208
0.0128208
0.0128727
0.0128727
0.0128727
0.0128727
0.0128727
0.0128727
0.0128727
0.0128727
0.0128727
0.0128727
0.0128727
0.0128727
0.0128727
0.0128727
0.0128727
0.0128727
0.0128727
0.0128727
0.0128727
0.0128727
0.0128727
0.0128727
0.0128727
0.0128727
0.0128727
0.0128727
0.0128727
0.0128727
0.0128727
0.0128727
0.0128727
0.0128727
0.0128727
0.0128727
0.0128727
0.0128727
0.0128727
0.0128727
0.0128727
0.0128727
0.0128727
0.0128727
0.0128727
0.0128727
0.0128727
0.0128727
0.0128727
0.0128727
0.0128727
0.0128727
0.0128727
0.0128727
0.0128727
0.0128727
0.0128727
0.0128727
0.0128727
0.0128727
0.0128727
0.0128727
0.0128727
0.0128727
0.0128727
0.0128727
0.0128727
0.0128727
0.0128727
0.0128727
0.0128727
0.0128727
0.0128727
0.0128727
0.0128727
0.0128727
0.0128727
0.0128727
0.0128727
0.0128727
0.0128727
0.0128727
0.0128727
0.0128727
0.0128727
0.0128727
0.0128727
0.0128727
0.0128727
0.0128727
0.0129354
0.0129354
0.0129354
0.0129354
0.0129354
0.0129354
0.0129354
0.0129354
0.0129354
0.0129354
0.0129354
0.0129354
0.0129354
0.0129354
0.0129354
0.0129354
0.0129354
0.0129354
0.0129354
0.0129354
0.0129354
0.0129354
0.0129354
0.0129354
0.0129354
0.0129354
0.0129354
0.0129354
0.0129354
0.0129354
0.0129354
0.0129354
0.0129354
0.0129354
0.0129354
0.0129354
0.0129354
0.0129354
0.0129354
0.0129354
0.0129354
0.0129354
0.0129354
0.0129354
0.0129354
0.0129354
0.0129354
0.0129354
0.0129354
0.0129354
0.0129354
0.0129354
0.0129354
0.0129354
0.0129354
0.0129354
0.0129354
0.0129354
0.0129354
0.0129354
0.0129354
0.0129354
0.0129354
0.0129354
0.0129354
0.0129354
0.0129354
0.0129354
0.0129354
0.0129354
0.0129354
0.0129354
0.0129354
0.0129354
0.0129354
0.0129354
0.0129354
0.0129354
0.0129354
0.0129354
0.0129354
0.0129354
0.0129354
0.0129354
0.0129354
0.0129354
0.0129354
0.0129354
0.0130113
0.0130113
0.0130113
0.0130113
0.0130113
0.0130113
0.0130113
0.0130113
0.0130113
0.0130113
0.0130113
0.0130113
0.0130113
0.0130113
0.0130113
0.0130113
0.0130113
0.0130113
0.0130113
0.0130113
0.0130113
0.0130113
0.0130113
0.0130113
0.0130113
0.0130113
0.0130113
0.0130113
0.0130113
0.0130113
0.0130113
0.0130113
0.0130113
0.0130113
0.0130113
0.0130113
0.0130113
0.0130113
0.0130113
0.0130113
0.0130113
0.0130113
0.0130113
0.0130113
0.0130113
0.0130113
0.0130113
0.0130113
0.0130113
0.0130113
0.0130113
0.0130113
0.0130113
0.0130113
0.0130113
0.0130113
0.0130113
0.0130113
0.0130113
0.0130113
0.0130113
0.0130113
0.0130113
0.0130113
0.0130113
0.0130113
0.0130113
0.0130113
0.0130113
0.0130113
0.0130113
0.0130113
0.0130113
0.0130113
0.0130113
0.0130113
0.0130113
0.0130113
0.0130113
0.0130113
0.0130113
0.0130113
0.0130113
0.0130113
0.0130113
0.0130113
0.0130113
0.0130113
0.0131031
0.0131031
0.0131031
0.0131031
0.0131031
0.0131031
0.0131031
0.0131031
0.0131031
0.0131031
0.0131031
0.0131031
0.0131031
0.0131031
0.0131031
0.0131031
0.0131031
0.0131031
0.0131031
0.0131031
0.0131031
0.0131031
0.0131031
0.0131031
0.0131031
0.0131031
0.0131031
0.0131031
0.0131031
0.0131031
0.0131031
0.0131031
0.0131031
0.0131031
0.0131031
0.0131031
0.0131031
0.0131031
0.0131031
0.0131031
0.0131031
0.0131031
0.0131031
0.0131031
0.0131031
0.0131031
0.0131031
0.0131031
0.0131031
0.0131031
0.0131031
0.0131031
0.0131031
0.0131031
0.0131031
0.0131031
0.0131031
0.0131031
0.0131031
0.0131031
0.0131031
0.0131031
0.0131031
0.0131031
0.0131031
0.0131031
0.0131031
0.0131031
0.0131031
0.0131031
0.0131031
0.0131031
0.0131031
0.0131031
0.0131031
0.0131031
0.0131031
0.0131031
0.0131031
0.0131031
0.0131031
0.0131031
0.0131031
0.0131031
0.0131031
0.0131031
0.0131031
0.0131031
0.0132141
0.0132141
0.0132141
0.0132141
0.0132141
0.0132141
0.0132141
0.0132141
0.0132141
0.0132141
0.0132141
0.0132141
0.0132141
0.0132141
0.0132141
0.0132141
0.0132141
0.0132141
0.0132141
0.0132141
0.0132141
0.0132141
0.0132141
0.0132141
0.0132141
0.0132141
0.0132141
0.0132141
0.0132141
0.0132141
0.0132141
0.0132141
0.0132141
0.0132141
0.0132141
0.0132141
0.0132141
0.0132141
0.0132141
0.0132141
0.0132141
0.0132141
0.0132141
0.0132141
0.0132141
0.0132141
0.0132141
0.0132141
0.0132141
0.0132141
0.0132141
0.0132141
0.0132141
0.0132141
0.0132141
0.0132141
0.0132141
0.0132141
0.0132141
0.0132141
0.0132141
0.0132141
0.0132141
0.0132141
0.0132141
0.0132141
0.0132141
0.0132141
0.0132141
0.0132141
0.0132141
0.0132141
0.0132141
0.0132141
0.0132141
0.0132141
0.0132141
0.0132141
0.0132141
0.0132141
0.0132141
0.0132141
0.0132141
0.0132141
0.0132141
0.0132141
0.0132141
0.0132141
0.0133485
0.0133485
0.0133485
0.0133485
0.0133485
0.0133485
0.0133485
0.0133485
0.0133485
0.0133485
0.0133485
0.0133485
0.0133485
0.0133485
0.0133485
0.0133485
0.0133485
0.0133485
0.0133485
0.0133485
0.0133485
0.0133485
0.0133485
0.0133485
0.0133485
0.0133485
0.0133485
0.0133485
0.0133485
0.0133485
0.0133485
0.0133485
0.0133485
0.0133485
0.0133485
0.0133485
0.0133485
0.0133485
0.0133485
0.0133485
0.0133485
0.0133485
0.0133485
0.0133485
0.0133485
0.0133485
0.0133485
0.0133485
0.0133485
0.0133485
0.0133485
0.0133485
0.0133485
0.0133485
0.0133485
0.0133485
0.0133485
0.0133485
0.0133485
0.0133485
0.0133485
0.0133485
0.0133485
0.0133485
0.0133485
0.0133485
0.0133485
0.0133485
0.0133485
0.0133485
0.0133485
0.0133485
0.0133485
0.0133485
0.0133485
0.0133485
0.0133485
0.0133485
0.0133485
0.0133485
0.0133485
0.0133485
0.0133485
0.0133485
0.0133485
0.0133485
0.0133485
0.0133485
0.013511
0.013511
0.013511
0.013511
0.013511
0.013511
0.013511
0.013511
0.013511
0.013511
0.013511
0.013511
0.013511
0.013511
0.013511
0.013511
0.013511
0.013511
0.013511
0.013511
0.013511
0.013511
0.013511
0.013511
0.013511
0.013511
0.013511
0.013511
0.013511
0.013511
0.013511
0.013511
0.013511
0.013511
0.013511
0.013511
0.013511
0.013511
0.013511
0.013511
0.013511
0.013511
0.013511
0.013511
0.013511
0.013511
0.013511
0.013511
0.013511
0.013511
0.013511
0.013511
0.013511
0.013511
0.013511
0.013511
0.013511
0.013511
0.013511
0.013511
0.013511
0.013511
0.013511
0.013511
0.013511
0.013511
0.013511
0.013511
0.013511
0.013511
0.013511
0.013511
0.013511
0.013511
0.013511
0.013511
0.013511
0.013511
0.013511
0.013511
0.013511
0.013511
0.013511
0.013511
0.013511
0.013511
0.013511
0.013511
0.0137076
0.0137076
0.0137076
0.0137076
0.0137076
0.0137076
0.0137076
0.0137076
0.0137076
0.0137076
0.0137076
0.0137076
0.0137076
0.0137076
0.0137076
0.0137076
0.0137076
0.0137076
0.0137076
0.0137076
0.0137076
0.0137076
0.0137076
0.0137076
0.0137076
0.0137076
0.0137076
0.0137076
0.0137076
0.0137076
0.0137076
0.0137076
0.0137076
0.0137076
0.0137076
0.0137076
0.0137076
0.0137076
0.0137076
0.0137076
0.0137076
0.0137076
0.0137076
0.0137076
0.0137076
0.0137076
0.0137076
0.0137076
0.0137076
0.0137076
0.0137076
0.0137076
0.0137076
0.0137076
0.0137076
0.0137076
0.0137076
0.0137076
0.0137076
0.0137076
0.0137076
0.0137076
0.0137076
0.0137076
0.0137076
0.0137076
0.0137076
0.0137076
0.0137076
0.0137076
0.0137076
0.0137076
0.0137076
0.0137076
0.0137076
0.0137076
0.0137076
0.0137076
0.0137076
0.0137076
0.0137076
0.0137076
0.0137076
0.0137076
0.0137076
0.0137076
0.0137076
0.0137076
0.0139454
0.0139454
0.0139454
0.0139454
0.0139454
0.0139454
0.0139454
0.0139454
0.0139454
0.0139454
0.0139454
0.0139454
0.0139454
0.0139454
0.0139454
0.0139454
0.0139454
0.0139454
0.0139454
0.0139454
0.0139454
0.0139454
0.0139454
0.0139454
0.0139454
0.0139454
0.0139454
0.0139454
0.0139454
0.0139454
0.0139454
0.0139454
0.0139454
0.0139454
0.0139454
0.0139454
0.0139454
0.0139454
0.0139454
0.0139454
0.0139454
0.0139454
0.0139454
0.0139454
0.0139454
0.0139454
0.0139454
0.0139454
0.0139454
0.0139454
0.0139454
0.0139454
0.0139454
0.0139454
0.0139454
0.0139454
0.0139454
0.0139454
0.0139454
0.0139454
0.0139454
0.0139454
0.0139454
0.0139454
0.0139454
0.0139454
0.0139454
0.0139454
0.0139454
0.0139454
0.0139454
0.0139454
0.0139454
0.0139454
0.0139454
0.0139454
0.0139454
0.0139454
0.0139454
0.0139454
0.0139454
0.0139454
0.0139454
0.0139454
0.0139454
0.0139454
0.0139454
0.0139454
0.0142331
0.0142331
0.0142331
0.0142331
0.0142331
0.0142331
0.0142331
0.0142331
0.0142331
0.0142331
0.0142331
0.0142331
0.0142331
0.0142331
0.0142331
0.0142331
0.0142331
0.0142331
0.0142331
0.0142331
0.0142331
0.0142331
0.0142331
0.0142331
0.0142331
0.0142331
0.0142331
0.0142331
0.0142331
0.0142331
0.0142331
0.0142331
0.0142331
0.0142331
0.0142331
0.0142331
0.0142331
0.0142331
0.0142331
0.0142331
0.0142331
0.0142331
0.0142331
0.0142331
0.0142331
0.0142331
0.0142331
0.0142331
0.0142331
0.0142331
0.0142331
0.0142331
0.0142331
0.0142331
0.0142331
0.0142331
0.0142331
0.0142331
0.0142331
0.0142331
0.0142331
0.0142331
0.0142331
0.0142331
0.0142331
0.0142331
0.0142331
0.0142331
0.0142331
0.0142331
0.0142331
0.0142331
0.0142331
0.0142331
0.0142331
0.0142331
0.0142331
0.0142331
0.0142331
0.0142331
0.0142331
0.0142331
0.0142331
0.0142331
0.0142331
0.0142331
0.0142331
0.0142331
0.0145812
0.0145812
0.0145812
0.0145812
0.0145812
0.0145812
0.0145812
0.0145812
0.0145812
0.0145812
0.0145812
0.0145812
0.0145812
0.0145812
0.0145812
0.0145812
0.0145812
0.0145812
0.0145812
0.0145812
0.0145812
0.0145812
0.0145812
0.0145812
0.0145812
0.0145812
0.0145812
0.0145812
0.0145812
0.0145812
0.0145812
0.0145812
0.0145812
0.0145812
0.0145812
0.0145812
0.0145812
0.0145812
0.0145812
0.0145812
0.0145812
0.0145812
0.0145812
0.0145812
0.0145812
0.0145812
0.0145812
0.0145812
0.0145812
0.0145812
0.0145812
0.0145812
0.0145812
0.0145812
0.0145812
0.0145812
0.0145812
0.0145812
0.0145812
0.0145812
0.0145812
0.0145812
0.0145812
0.0145812
0.0145812
0.0145812
0.0145812
0.0145812
0.0145812
0.0145812
0.0145812
0.0145812
0.0145812
0.0145812
0.0145812
0.0145812
0.0145812
0.0145812
0.0145812
0.0145812
0.0145812
0.0145812
0.0145812
0.0145812
0.0145812
0.0145812
0.0145812
0.0145812
0.0150022
0.0150022
0.0150022
0.0150022
0.0150022
0.0150022
0.0150022
0.0150022
0.0150022
0.0150022
0.0150022
0.0150022
0.0150022
0.0150022
0.0150022
0.0150022
0.0150022
0.0150022
0.0150022
0.0150022
0.0150022
0.0150022
0.0150022
0.0150022
0.0150022
0.0150022
0.0150022
0.0150022
0.0150022
0.0150022
0.0150022
0.0150022
0.0150022
0.0150022
0.0150022
0.0150022
0.0150022
0.0150022
0.0150022
0.0150022
0.0150022
0.0150022
0.0150022
0.0150022
0.0150022
0.0150022
0.0150022
0.0150022
0.0150022
0.0150022
0.0150022
0.0150022
0.0150022
0.0150022
0.0150022
0.0150022
0.0150022
0.0150022
0.0150022
0.0150022
0.0150022
0.0150022
0.0150022
0.0150022
0.0150022
0.0150022
0.0150022
0.0150022
0.0150022
0.0150022
0.0150022
0.0150022
0.0150022
0.0150022
0.0150022
0.0150022
0.0150022
0.0150022
0.0150022
0.0150022
0.0150022
0.0150022
0.0150022
0.0150022
0.0150022
0.0150022
0.0150022
0.0150022
0.0155116
0.0155116
0.0155116
0.0155116
0.0155116
0.0155116
0.0155116
0.0155116
0.0155116
0.0155116
0.0155116
0.0155116
0.0155116
0.0155116
0.0155116
0.0155116
0.0155116
0.0155116
0.0155116
0.0155116
0.0155116
0.0155116
0.0155116
0.0155116
0.0155116
0.0155116
0.0155116
0.0155116
0.0155116
0.0155116
0.0155116
0.0155116
0.0155116
0.0155116
0.0155116
0.0155116
0.0155116
0.0155116
0.0155116
0.0155116
0.0155116
0.0155116
0.0155116
0.0155116
0.0155116
0.0155116
0.0155116
0.0155116
0.0155116
0.0155116
0.0155116
0.0155116
0.0155116
0.0155116
0.0155116
0.0155116
0.0155116
0.0155116
0.0155116
0.0155116
0.0155116
0.0155116
0.0155116
0.0155116
0.0155116
0.0155116
0.0155116
0.0155116
0.0155116
0.0155116
0.0155116
0.0155116
0.0155116
0.0155116
0.0155116
0.0155116
0.0155116
0.0155116
0.0155116
0.0155116
0.0155116
0.0155116
0.0155116
0.0155116
0.0155116
0.0155116
0.0155116
0.0155116
0.0161277
0.0161277
0.0161277
0.0161277
0.0161277
0.0161277
0.0161277
0.0161277
0.0161277
0.0161277
0.0161277
0.0161277
0.0161277
0.0161277
0.0161277
0.0161277
0.0161277
0.0161277
0.0161277
0.0161277
0.0161277
0.0161277
0.0161277
0.0161277
0.0161277
0.0161277
0.0161277
0.0161277
0.0161277
0.0161277
0.0161277
0.0161277
0.0161277
0.0161277
0.0161277
0.0161277
0.0161277
0.0161277
0.0161277
0.0161277
0.0161277
0.0161277
0.0161277
0.0161277
0.0161277
0.0161277
0.0161277
0.0161277
0.0161277
0.0161277
0.0161277
0.0161277
0.0161277
0.0161277
0.0161277
0.0161277
0.0161277
0.0161277
0.0161277
0.0161277
0.0161277
0.0161277
0.0161277
0.0161277
0.0161277
0.0161277
0.0161277
0.0161277
0.0161277
0.0161277
0.0161277
0.0161277
0.0161277
0.0161277
0.0161277
0.0161277
0.0161277
0.0161277
0.0161277
0.0161277
0.0161277
0.0161277
0.0161277
0.0161277
0.0161277
0.0161277
0.0161277
0.0161277
0.0168731
0.0168731
0.0168731
0.0168731
0.0168731
0.0168731
0.0168731
0.0168731
0.0168731
0.0168731
0.0168731
0.0168731
0.0168731
0.0168731
0.0168731
0.0168731
0.0168731
0.0168731
0.0168731
0.0168731
0.0168731
0.0168731
0.0168731
0.0168731
0.0168731
0.0168731
0.0168731
0.0168731
0.0168731
0.0168731
0.0168731
0.0168731
0.0168731
0.0168731
0.0168731
0.0168731
0.0168731
0.0168731
0.0168731
0.0168731
0.0168731
0.0168731
0.0168731
0.0168731
0.0168731
0.0168731
0.0168731
0.0168731
0.0168731
0.0168731
0.0168731
0.0168731
0.0168731
0.0168731
0.0168731
0.0168731
0.0168731
0.0168731
0.0168731
0.0168731
0.0168731
0.0168731
0.0168731
0.0168731
0.0168731
0.0168731
0.0168731
0.0168731
0.0168731
0.0168731
0.0168731
0.0168731
0.0168731
0.0168731
0.0168731
0.0168731
0.0168731
0.0168731
0.0168731
0.0168731
0.0168731
0.0168731
0.0168731
0.0168731
0.0168731
0.0168731
0.0168731
0.0168731
0.0177749
0.0177749
0.0177749
0.0177749
0.0177749
0.0177749
0.0177749
0.0177749
0.0177749
0.0177749
0.0177749
0.0177749
0.0177749
0.0177749
0.0177749
0.0177749
0.0177749
0.0177749
0.0177749
0.0177749
0.0177749
0.0177749
0.0177749
0.0177749
0.0177749
0.0177749
0.0177749
0.0177749
0.0177749
0.0177749
0.0177749
0.0177749
0.0177749
0.0177749
0.0177749
0.0177749
0.0177749
0.0177749
0.0177749
0.0177749
0.0177749
0.0177749
0.0177749
0.0177749
0.0177749
0.0177749
0.0177749
0.0177749
0.0177749
0.0177749
0.0177749
0.0177749
0.0177749
0.0177749
0.0177749
0.0177749
0.0177749
0.0177749
0.0177749
0.0177749
0.0177749
0.0177749
0.0177749
0.0177749
0.0177749
0.0177749
0.0177749
0.0177749
0.0177749
0.0177749
0.0177749
0.0177749
0.0177749
0.0177749
0.0177749
0.0177749
0.0177749
0.0177749
0.0177749
0.0177749
0.0177749
0.0177749
0.0177749
0.0177749
0.0177749
0.0177749
0.0177749
0.0177749
0.0188657
0.0188657
0.0188657
0.0188657
0.0188657
0.0188657
0.0188657
0.0188657
0.0188657
0.0188657
0.0188657
0.0188657
0.0188657
0.0188657
0.0188657
0.0188657
0.0188657
0.0188657
0.0188657
0.0188657
0.0188657
0.0188657
0.0188657
0.0188657
0.0188657
0.0188657
0.0188657
0.0188657
0.0188657
0.0188657
0.0188657
0.0188657
0.0188657
0.0188657
0.0188657
0.0188657
0.0188657
0.0188657
0.0188657
0.0188657
0.0188657
0.0188657
0.0188657
0.0188657
0.0188657
0.0188657
0.0188657
0.0188657
0.0188657
0.0188657
0.0188657
0.0188657
0.0188657
0.0188657
0.0188657
0.0188657
0.0188657
0.0188657
0.0188657
0.0188657
0.0188657
0.0188657
0.0188657
0.0188657
0.0188657
0.0188657
0.0188657
0.0188657
0.0188657
0.0188657
0.0188657
0.0188657
0.0188657
0.0188657
0.0188657
0.0188657
0.0188657
0.0188657
0.0188657
0.0188657
0.0188657
0.0188657
0.0188657
0.0188657
0.0188657
0.0188657
0.0188657
0.0188657
0.0201853
0.0201853
0.0201853
0.0201853
0.0201853
0.0201853
0.0201853
0.0201853
0.0201853
0.0201853
0.0201853
0.0201853
0.0201853
0.0201853
0.0201853
0.0201853
0.0201853
0.0201853
0.0201853
0.0201853
0.0201853
0.0201853
0.0201853
0.0201853
0.0201853
0.0201853
0.0201853
0.0201853
0.0201853
0.0201853
0.0201853
0.0201853
0.0201853
0.0201853
0.0201853
0.0201853
0.0201853
0.0201853
0.0201853
0.0201853
0.0201853
0.0201853
0.0201853
0.0201853
0.0201853
0.0201853
0.0201853
0.0201853
0.0201853
0.0201853
0.0201853
0.0201853
0.0201853
0.0201853
0.0201853
0.0201853
0.0201853
0.0201853
0.0201853
0.0201853
0.0201853
0.0201853
0.0201853
0.0201853
0.0201853
0.0201853
0.0201853
0.0201853
0.0201853
0.0201853
0.0201853
0.0201853
0.0201853
0.0201853
0.0201853
0.0201853
0.0201853
0.0201853
0.0201853
0.0201853
0.0201853
0.0201853
0.0201853
0.0201853
0.0201853
0.0201853
0.0201853
0.0201853
0.0217817
0.0217817
0.0217817
0.0217817
0.0217817
0.0217817
0.0217817
0.0217817
0.0217817
0.0217817
0.0217817
0.0217817
0.0217817
0.0217817
0.0217817
0.0217817
0.0217817
0.0217817
0.0217817
0.0217817
0.0217817
0.0217817
0.0217817
0.0217817
0.0217817
0.0217817
0.0217817
0.0217817
0.0217817
0.0217817
0.0217817
0.0217817
0.0217817
0.0217817
0.0217817
0.0217817
0.0217817
0.0217817
0.0217817
0.0217817
0.0217817
0.0217817
0.0217817
0.0217817
0.0217817
0.0217817
0.0217817
0.0217817
0.0217817
0.0217817
0.0217817
0.0217817
0.0217817
0.0217817
0.0217817
0.0217817
0.0217817
0.0217817
0.0217817
0.0217817
0.0217817
0.0217817
0.0217817
0.0217817
0.0217817
0.0217817
0.0217817
0.0217817
0.0217817
0.0217817
0.0217817
0.0217817
0.0217817
0.0217817
0.0217817
0.0217817
0.0217817
0.0217817
0.0217817
0.0217817
0.0217817
0.0217817
0.0217817
0.0217817
0.0217817
0.0217817
0.0217817
0.0217817
0.0237129
0.0237129
0.0237129
0.0237129
0.0237129
0.0237129
0.0237129
0.0237129
0.0237129
0.0237129
0.0237129
0.0237129
0.0237129
0.0237129
0.0237129
0.0237129
0.0237129
0.0237129
0.0237129
0.0237129
0.0237129
0.0237129
0.0237129
0.0237129
0.0237129
0.0237129
0.0237129
0.0237129
0.0237129
0.0237129
0.0237129
0.0237129
0.0237129
0.0237129
0.0237129
0.0237129
0.0237129
0.0237129
0.0237129
0.0237129
0.0237129
0.0237129
0.0237129
0.0237129
0.0237129
0.0237129
0.0237129
0.0237129
0.0237129
0.0237129
0.0237129
0.0237129
0.0237129
0.0237129
0.0237129
0.0237129
0.0237129
0.0237129
0.0237129
0.0237129
0.0237129
0.0237129
0.0237129
0.0237129
0.0237129
0.0237129
0.0237129
0.0237129
0.0237129
0.0237129
0.0237129
0.0237129
0.0237129
0.0237129
0.0237129
0.0237129
0.0237129
0.0237129
0.0237129
0.0237129
0.0237129
0.0237129
0.0237129
0.0237129
0.0237129
0.0237129
0.0237129
0.0237129
0.0260492
0.0260492
0.0260492
0.0260492
0.0260492
0.0260492
0.0260492
0.0260492
0.0260492
0.0260492
0.0260492
0.0260492
0.0260492
0.0260492
0.0260492
0.0260492
0.0260492
0.0260492
0.0260492
0.0260492
0.0260492
0.0260492
0.0260492
0.0260492
0.0260492
0.0260492
0.0260492
0.0260492
0.0260492
0.0260492
0.0260492
0.0260492
0.0260492
0.0260492
0.0260492
0.0260492
0.0260492
0.0260492
0.0260492
0.0260492
0.0260492
0.0260492
0.0260492
0.0260492
0.0260492
0.0260492
0.0260492
0.0260492
0.0260492
0.0260492
0.0260492
0.0260492
0.0260492
0.0260492
0.0260492
0.0260492
0.0260492
0.0260492
0.0260492
0.0260492
0.0260492
0.0260492
0.0260492
0.0260492
0.0260492
0.0260492
0.0260492
0.0260492
0.0260492
0.0260492
0.0260492
0.0260492
0.0260492
0.0260492
0.0260492
0.0260492
0.0260492
0.0260492
0.0260492
0.0260492
0.0260492
0.0260492
0.0260492
0.0260492
0.0260492
0.0260492
0.0260492
0.0260492
0.0288754
0.0288754
0.0288754
0.0288754
0.0288754
0.0288754
0.0288754
0.0288754
0.0288754
0.0288754
0.0288754
0.0288754
0.0288754
0.0288754
0.0288754
0.0288754
0.0288754
0.0288754
0.0288754
0.0288754
0.0288754
0.0288754
0.0288754
0.0288754
0.0288754
0.0288754
0.0288754
0.0288754
0.0288754
0.0288754
0.0288754
0.0288754
0.0288754
0.0288754
0.0288754
0.0288754
0.0288754
0.0288754
0.0288754
0.0288754
0.0288754
0.0288754
0.0288754
0.0288754
0.0288754
0.0288754
0.0288754
0.0288754
0.0288754
0.0288754
0.0288754
0.0288754
0.0288754
0.0288754
0.0288754
0.0288754
0.0288754
0.0288754
0.0288754
0.0288754
0.0288754
0.0288754
0.0288754
0.0288754
0.0288754
0.0288754
0.0288754
0.0288754
0.0288754
0.0288754
0.0288754
0.0288754
0.0288754
0.0288754
0.0288754
0.0288754
0.0288754
0.0288754
0.0288754
0.0288754
0.0288754
0.0288754
0.0288754
0.0288754
0.0288754
0.0288754
0.0288754
0.0288754
0.0322943
0.0322943
0.0322943
0.0322943
0.0322943
0.0322943
0.0322943
0.0322943
0.0322943
0.0322943
0.0322943
0.0322943
0.0322943
0.0322943
0.0322943
0.0322943
0.0322943
0.0322943
0.0322943
0.0322943
0.0322943
0.0322943
0.0322943
0.0322943
0.0322943
0.0322943
0.0322943
0.0322943
0.0322943
0.0322943
0.0322943
0.0322943
0.0322943
0.0322943
0.0322943
0.0322943
0.0322943
0.0322943
0.0322943
0.0322943
0.0322943
0.0322943
0.0322943
0.0322943
0.0322943
0.0322943
0.0322943
0.0322943
0.0322943
0.0322943
0.0322943
0.0322943
0.0322943
0.0322943
0.0322943
0.0322943
0.0322943
0.0322943
0.0322943
0.0322943
0.0322943
0.0322943
0.0322943
0.0322943
0.0322943
0.0322943
0.0322943
0.0322943
0.0322943
0.0322943
0.0322943
0.0322943
0.0322943
0.0322943
0.0322943
0.0322943
0.0322943
0.0322943
0.0322943
0.0322943
0.0322943
0.0322943
0.0322943
0.0322943
0.0322943
0.0322943
0.0322943
0.0322943
0.0364302
0.0364302
0.0364302
0.0364302
0.0364302
0.0364302
0.0364302
0.0364302
0.0364302
0.0364302
0.0364302
0.0364302
0.0364302
0.0364302
0.0364302
0.0364302
0.0364302
0.0364302
0.0364302
0.0364302
0.0364302
0.0364302
0.0364302
0.0364302
0.0364302
0.0364302
0.0364302
0.0364302
0.0364302
0.0364302
0.0364302
0.0364302
0.0364302
0.0364302
0.0364302
0.0364302
0.0364302
0.0364302
0.0364302
0.0364302
0.0364302
0.0364302
0.0364302
0.0364302
0.0364302
0.0364302
0.0364302
0.0364302
0.0364302
0.0364302
0.0364302
0.0364302
0.0364302
0.0364302
0.0364302
0.0364302
0.0364302
0.0364302
0.0364302
0.0364302
0.0364302
0.0364302
0.0364302
0.0364302
0.0364302
0.0364302
0.0364302
0.0364302
0.0364302
0.0364302
0.0364302
0.0364302
0.0364302
0.0364302
0.0364302
0.0364302
0.0364302
0.0364302
0.0364302
0.0364302
0.0364302
0.0364302
0.0364302
0.0364302
0.0364302
0.0364302
0.0364302
0.0364302
0.0414336
0.0414336
0.0414336
0.0414336
0.0414336
0.0414336
0.0414336
0.0414336
0.0414336
0.0414336
0.0414336
0.0414336
0.0414336
0.0414336
0.0414336
0.0414336
0.0414336
0.0414336
0.0414336
0.0414336
0.0414336
0.0414336
0.0414336
0.0414336
0.0414336
0.0414336
0.0414336
0.0414336
0.0414336
0.0414336
0.0414336
0.0414336
0.0414336
0.0414336
0.0414336
0.0414336
0.0414336
0.0414336
0.0414336
0.0414336
0.0414336
0.0414336
0.0414336
0.0414336
0.0414336
0.0414336
0.0414336
0.0414336
0.0414336
0.0414336
0.0414336
0.0414336
0.0414336
0.0414336
0.0414336
0.0414336
0.0414336
0.0414336
0.0414336
0.0414336
0.0414336
0.0414336
0.0414336
0.0414336
0.0414336
0.0414336
0.0414336
0.0414336
0.0414336
0.0414336
0.0414336
0.0414336
0.0414336
0.0414336
0.0414336
0.0414336
0.0414336
0.0414336
0.0414336
0.0414336
0.0414336
0.0414336
0.0414336
0.0414336
0.0414336
0.0414336
0.0414336
0.0414336
0.0474864
0.0474864
0.0474864
0.0474864
0.0474864
0.0474864
0.0474864
0.0474864
0.0474864
0.0474864
0.0474864
0.0474864
0.0474864
0.0474864
0.0474864
0.0474864
0.0474864
0.0474864
0.0474864
0.0474864
0.0474864
0.0474864
0.0474864
0.0474864
0.0474864
0.0474864
0.0474864
0.0474864
0.0474864
0.0474864
0.0474864
0.0474864
0.0474864
0.0474864
0.0474864
0.0474864
0.0474864
0.0474864
0.0474864
0.0474864
0.0474864
0.0474864
0.0474864
0.0474864
0.0474864
0.0474864
0.0474864
0.0474864
0.0474864
0.0474864
0.0474864
0.0474864
0.0474864
0.0474864
0.0474864
0.0474864
0.0474864
0.0474864
0.0474864
0.0474864
0.0474864
0.0474864
0.0474864
0.0474864
0.0474864
0.0474864
0.0474864
0.0474864
0.0474864
0.0474864
0.0474864
0.0474864
0.0474864
0.0474864
0.0474864
0.0474864
0.0474864
0.0474864
0.0474864
0.0474864
0.0474864
0.0474864
0.0474864
0.0474864
0.0474864
0.0474864
0.0474864
0.0474864
0.053975
0.053975
0.053975
0.053975
0.053975
0.053975
0.053975
0.053975
0.053975
0.053975
0.053975
0.053975
0.053975
0.053975
0.053975
0.053975
0.053975
0.053975
0.053975
0.053975
0.053975
0.053975
0.053975
0.053975
0.053975
0.053975
0.053975
0.053975
0.053975
0.053975
0.053975
0.053975
0.053975
0.053975
0.053975
0.053975
0.053975
0.053975
0.053975
0.053975
0.053975
0.053975
0.053975
0.053975
0.053975
0.053975
0.053975
0.053975
0.053975
0.053975
0.053975
0.053975
0.053975
0.053975
0.053975
0.053975
0.053975
0.053975
0.053975
0.053975
0.053975
0.053975
0.053975
0.053975
0.053975
0.053975
0.053975
0.053975
0.053975
0.053975
0.053975
0.053975
0.053975
0.053975
0.053975
0.053975
0.053975
0.053975
0.053975
0.053975
0.053975
0.053975
0.053975
0.053975
0.053975
0.053975
0.053975
0.053975
0.060325
0.060325
0.060325
0.060325
0.060325
0.060325
0.060325
0.060325
0.060325
0.060325
0.060325
0.060325
0.060325
0.060325
0.060325
0.060325
0.060325
0.060325
0.060325
0.060325
0.060325
0.060325
0.060325
0.060325
0.060325
0.060325
0.060325
0.060325
0.060325
0.060325
0.060325
0.060325
0.060325
0.060325
0.060325
0.060325
0.060325
0.060325
0.060325
0.060325
0.060325
0.060325
0.060325
0.060325
0.060325
0.060325
0.060325
0.060325
0.060325
0.060325
0.060325
0.060325
0.060325
0.060325
0.060325
0.060325
0.060325
0.060325
0.060325
0.060325
0.060325
0.060325
0.060325
0.060325
0.060325
0.060325
0.060325
0.060325
0.060325
0.060325
0.060325
0.060325
0.060325
0.060325
0.060325
0.060325
0.060325
0.060325
0.060325
0.060325
0.060325
0.060325
0.060325
0.060325
0.060325
0.060325
0.060325
0.060325
0.066675
0.066675
0.066675
0.066675
0.066675
0.066675
0.066675
0.066675
0.066675
0.066675