/*--------------------------------*- C++ -*----------------------------------*\
| =========                 |                                                 |
| \\      /  F ield         | OpenFOAM: The Open Source CFD Toolbox           |
|  \\    /   O peration     | Version:  5.x                                   |
|   \\  /    A nd           | Web:      www.OpenFOAM.org                      |
|    \\/     M anipulation  |                                                 |
\*---------------------------------------------------------------------------*/
FoamFile
{
    version     2.0;
    format      ascii;
    class       volScalarField;
    location    "constant";
    object      cy;
}
// * * * * * * * * * * * * * * * * * * * * * * * * * * * * * * * * * * * * * //

dimensions      [0 1 0 0 0 0 0];

internalField   nonuniform List<scalar> 
152470
(
0.0222947
0.0224412
0.0226023
0.0227795
0.0229745
0.0231889
0.0234248
0.0236843
0.0239697
0.0242837
0.024629
0.0250089
0.0254268
0.0258865
0.0263921
0.0269483
0.0275601
0.0282331
0.0289734
0.0297878
0.0306836
0.0316689
0.0327528
0.033945
0.0352565
0.0366992
0.0382861
0.0400317
0.0419519
0.044064
0.0463874
0.0489432
0.0517545
0.0548469
0.0582486
0.0619904
0.0661065
0.0704185
0.0745346
0.0782764
0.0816781
0.0847705
0.0875818
0.0901376
0.092461
0.0945731
0.0964933
0.0982389
0.0998258
0.101268
0.10258
0.103772
0.104856
0.105841
0.106737
0.107552
0.108292
0.108965
0.109577
0.110133
0.110639
0.111098
0.111516
0.111896
0.112241
0.112555
0.112841
0.1131
0.113336
0.113551
0.113745
0.113923
0.114084
0.11423
0.0222947
0.0224412
0.0226023
0.0227795
0.0229745
0.0231889
0.0234248
0.0236843
0.0239697
0.0242837
0.024629
0.0250089
0.0254268
0.0258865
0.0263921
0.0269483
0.0275601
0.0282331
0.0289734
0.0297878
0.0306836
0.0316689
0.0327528
0.033945
0.0352565
0.0366992
0.0382861
0.0400317
0.0419519
0.044064
0.0463874
0.0489432
0.0517545
0.0548469
0.0582486
0.0619904
0.0661065
0.0704185
0.0745346
0.0782764
0.0816781
0.0847705
0.0875818
0.0901376
0.092461
0.0945731
0.0964933
0.0982389
0.0998258
0.101268
0.10258
0.103772
0.104856
0.105841
0.106737
0.107552
0.108292
0.108965
0.109577
0.110133
0.110639
0.111098
0.111516
0.111896
0.112241
0.112555
0.112841
0.1131
0.113336
0.113551
0.113745
0.113923
0.114084
0.11423
0.0222947
0.0224412
0.0226023
0.0227795
0.0229745
0.0231889
0.0234248
0.0236843
0.0239697
0.0242837
0.024629
0.0250089
0.0254268
0.0258865
0.0263921
0.0269483
0.0275601
0.0282331
0.0289734
0.0297878
0.0306836
0.0316689
0.0327528
0.033945
0.0352565
0.0366992
0.0382861
0.0400317
0.0419519
0.044064
0.0463874
0.0489432
0.0517545
0.0548469
0.0582486
0.0619904
0.0661065
0.0704185
0.0745346
0.0782764
0.0816781
0.0847705
0.0875818
0.0901376
0.092461
0.0945731
0.0964933
0.0982389
0.0998258
0.101268
0.10258
0.103772
0.104856
0.105841
0.106737
0.107552
0.108292
0.108965
0.109577
0.110133
0.110639
0.111098
0.111516
0.111896
0.112241
0.112555
0.112841
0.1131
0.113336
0.113551
0.113745
0.113923
0.114084
0.11423
0.0222947
0.0224412
0.0226023
0.0227795
0.0229745
0.0231889
0.0234248
0.0236843
0.0239697
0.0242837
0.024629
0.0250089
0.0254268
0.0258865
0.0263921
0.0269483
0.0275601
0.0282331
0.0289734
0.0297878
0.0306836
0.0316689
0.0327528
0.033945
0.0352565
0.0366992
0.0382861
0.0400317
0.0419519
0.044064
0.0463874
0.0489432
0.0517545
0.0548469
0.0582486
0.0619904
0.0661065
0.0704185
0.0745346
0.0782764
0.0816781
0.0847705
0.0875818
0.0901376
0.092461
0.0945731
0.0964933
0.0982389
0.0998258
0.101268
0.10258
0.103772
0.104856
0.105841
0.106737
0.107552
0.108292
0.108965
0.109577
0.110133
0.110639
0.111098
0.111516
0.111896
0.112241
0.112555
0.112841
0.1131
0.113336
0.113551
0.113745
0.113923
0.114084
0.11423
0.0222947
0.0224412
0.0226023
0.0227795
0.0229745
0.0231889
0.0234248
0.0236843
0.0239697
0.0242837
0.024629
0.0250089
0.0254268
0.0258865
0.0263921
0.0269483
0.0275601
0.0282331
0.0289734
0.0297878
0.0306836
0.0316689
0.0327528
0.033945
0.0352565
0.0366992
0.0382861
0.0400317
0.0419519
0.044064
0.0463874
0.0489432
0.0517545
0.0548469
0.0582486
0.0619904
0.0661065
0.0704185
0.0745346
0.0782764
0.0816781
0.0847705
0.0875818
0.0901376
0.092461
0.0945731
0.0964933
0.0982389
0.0998258
0.101268
0.10258
0.103772
0.104856
0.105841
0.106737
0.107552
0.108292
0.108965
0.109577
0.110133
0.110639
0.111098
0.111516
0.111896
0.112241
0.112555
0.112841
0.1131
0.113336
0.113551
0.113745
0.113923
0.114084
0.11423
0.0222947
0.0224412
0.0226023
0.0227795
0.0229745
0.0231889
0.0234248
0.0236843
0.0239697
0.0242837
0.024629
0.0250089
0.0254268
0.0258865
0.0263921
0.0269483
0.0275601
0.0282331
0.0289734
0.0297878
0.0306836
0.0316689
0.0327528
0.033945
0.0352565
0.0366992
0.0382861
0.0400317
0.0419519
0.044064
0.0463874
0.0489432
0.0517545
0.0548469
0.0582486
0.0619904
0.0661065
0.0704185
0.0745346
0.0782764
0.0816781
0.0847705
0.0875818
0.0901376
0.092461
0.0945731
0.0964933
0.0982389
0.0998258
0.101268
0.10258
0.103772
0.104856
0.105841
0.106737
0.107552
0.108292
0.108965
0.109577
0.110133
0.110639
0.111098
0.111516
0.111896
0.112241
0.112555
0.112841
0.1131
0.113336
0.113551
0.113745
0.113923
0.114084
0.11423
0.0222947
0.0224412
0.0226023
0.0227795
0.0229745
0.0231889
0.0234248
0.0236843
0.0239697
0.0242837
0.024629
0.0250089
0.0254268
0.0258865
0.0263921
0.0269483
0.0275601
0.0282331
0.0289734
0.0297878
0.0306836
0.0316689
0.0327528
0.033945
0.0352565
0.0366992
0.0382861
0.0400317
0.0419519
0.044064
0.0463874
0.0489432
0.0517545
0.0548469
0.0582486
0.0619904
0.0661065
0.0704185
0.0745346
0.0782764
0.0816781
0.0847705
0.0875818
0.0901376
0.092461
0.0945731
0.0964933
0.0982389
0.0998258
0.101268
0.10258
0.103772
0.104856
0.105841
0.106737
0.107552
0.108292
0.108965
0.109577
0.110133
0.110639
0.111098
0.111516
0.111896
0.112241
0.112555
0.112841
0.1131
0.113336
0.113551
0.113745
0.113923
0.114084
0.11423
0.0222947
0.0224412
0.0226023
0.0227795
0.0229745
0.0231889
0.0234248
0.0236843
0.0239697
0.0242837
0.024629
0.0250089
0.0254268
0.0258865
0.0263921
0.0269483
0.0275601
0.0282331
0.0289734
0.0297878
0.0306836
0.0316689
0.0327528
0.033945
0.0352565
0.0366992
0.0382861
0.0400317
0.0419519
0.044064
0.0463874
0.0489432
0.0517545
0.0548469
0.0582486
0.0619904
0.0661065
0.0704185
0.0745346
0.0782764
0.0816781
0.0847705
0.0875818
0.0901376
0.092461
0.0945731
0.0964933
0.0982389
0.0998258
0.101268
0.10258
0.103772
0.104856
0.105841
0.106737
0.107552
0.108292
0.108965
0.109577
0.110133
0.110639
0.111098
0.111516
0.111896
0.112241
0.112555
0.112841
0.1131
0.113336
0.113551
0.113745
0.113923
0.114084
0.11423
0.0222947
0.0224412
0.0226023
0.0227795
0.0229745
0.0231889
0.0234248
0.0236843
0.0239697
0.0242837
0.024629
0.0250089
0.0254268
0.0258865
0.0263921
0.0269483
0.0275601
0.0282331
0.0289734
0.0297878
0.0306836
0.0316689
0.0327528
0.033945
0.0352565
0.0366992
0.0382861
0.0400317
0.0419519
0.044064
0.0463874
0.0489432
0.0517545
0.0548469
0.0582486
0.0619904
0.0661065
0.0704185
0.0745346
0.0782764
0.0816781
0.0847705
0.0875818
0.0901376
0.092461
0.0945731
0.0964933
0.0982389
0.0998258
0.101268
0.10258
0.103772
0.104856
0.105841
0.106737
0.107552
0.108292
0.108965
0.109577
0.110133
0.110639
0.111098
0.111516
0.111896
0.112241
0.112555
0.112841
0.1131
0.113336
0.113551
0.113745
0.113923
0.114084
0.11423
0.0222947
0.0224412
0.0226023
0.0227795
0.0229745
0.0231889
0.0234248
0.0236843
0.0239697
0.0242837
0.024629
0.0250089
0.0254268
0.0258865
0.0263921
0.0269483
0.0275601
0.0282331
0.0289734
0.0297878
0.0306836
0.0316689
0.0327528
0.033945
0.0352565
0.0366992
0.0382861
0.0400317
0.0419519
0.044064
0.0463874
0.0489432
0.0517545
0.0548469
0.0582486
0.0619904
0.0661065
0.0704185
0.0745346
0.0782764
0.0816781
0.0847705
0.0875818
0.0901376
0.092461
0.0945731
0.0964933
0.0982389
0.0998258
0.101268
0.10258
0.103772
0.104856
0.105841
0.106737
0.107552
0.108292
0.108965
0.109577
0.110133
0.110639
0.111098
0.111516
0.111896
0.112241
0.112555
0.112841
0.1131
0.113336
0.113551
0.113745
0.113923
0.114084
0.11423
0.0222947
0.0224412
0.0226023
0.0227795
0.0229745
0.0231889
0.0234248
0.0236843
0.0239697
0.0242837
0.024629
0.0250089
0.0254268
0.0258865
0.0263921
0.0269483
0.0275601
0.0282331
0.0289734
0.0297878
0.0306836
0.0316689
0.0327528
0.033945
0.0352565
0.0366992
0.0382861
0.0400317
0.0419519
0.044064
0.0463874
0.0489432
0.0517545
0.0548469
0.0582486
0.0619904
0.0661065
0.0704185
0.0745346
0.0782764
0.0816781
0.0847705
0.0875818
0.0901376
0.092461
0.0945731
0.0964933
0.0982389
0.0998258
0.101268
0.10258
0.103772
0.104856
0.105841
0.106737
0.107552
0.108292
0.108965
0.109577
0.110133
0.110639
0.111098
0.111516
0.111896
0.112241
0.112555
0.112841
0.1131
0.113336
0.113551
0.113745
0.113923
0.114084
0.11423
0.0222947
0.0224412
0.0226023
0.0227795
0.0229745
0.0231889
0.0234248
0.0236843
0.0239697
0.0242837
0.024629
0.0250089
0.0254268
0.0258865
0.0263921
0.0269483
0.0275601
0.0282331
0.0289734
0.0297878
0.0306836
0.0316689
0.0327528
0.033945
0.0352565
0.0366992
0.0382861
0.0400317
0.0419519
0.044064
0.0463874
0.0489432
0.0517545
0.0548469
0.0582486
0.0619904
0.0661065
0.0704185
0.0745346
0.0782764
0.0816781
0.0847705
0.0875818
0.0901376
0.092461
0.0945731
0.0964933
0.0982389
0.0998258
0.101268
0.10258
0.103772
0.104856
0.105841
0.106737
0.107552
0.108292
0.108965
0.109577
0.110133
0.110639
0.111098
0.111516
0.111896
0.112241
0.112555
0.112841
0.1131
0.113336
0.113551
0.113745
0.113923
0.114084
0.11423
0.0222947
0.0224412
0.0226023
0.0227795
0.0229745
0.0231889
0.0234248
0.0236843
0.0239697
0.0242837
0.024629
0.0250089
0.0254268
0.0258865
0.0263921
0.0269483
0.0275601
0.0282331
0.0289734
0.0297878
0.0306836
0.0316689
0.0327528
0.033945
0.0352565
0.0366992
0.0382861
0.0400317
0.0419519
0.044064
0.0463874
0.0489432
0.0517545
0.0548469
0.0582486
0.0619904
0.0661065
0.0704185
0.0745346
0.0782764
0.0816781
0.0847705
0.0875818
0.0901376
0.092461
0.0945731
0.0964933
0.0982389
0.0998258
0.101268
0.10258
0.103772
0.104856
0.105841
0.106737
0.107552
0.108292
0.108965
0.109577
0.110133
0.110639
0.111098
0.111516
0.111896
0.112241
0.112555
0.112841
0.1131
0.113336
0.113551
0.113745
0.113923
0.114084
0.11423
0.0222947
0.0224412
0.0226023
0.0227795
0.0229745
0.0231889
0.0234248
0.0236843
0.0239697
0.0242837
0.024629
0.0250089
0.0254268
0.0258865
0.0263921
0.0269483
0.0275601
0.0282331
0.0289734
0.0297878
0.0306836
0.0316689
0.0327528
0.033945
0.0352565
0.0366992
0.0382861
0.0400317
0.0419519
0.044064
0.0463874
0.0489432
0.0517545
0.0548469
0.0582486
0.0619904
0.0661065
0.0704185
0.0745346
0.0782764
0.0816781
0.0847705
0.0875818
0.0901376
0.092461
0.0945731
0.0964933
0.0982389
0.0998258
0.101268
0.10258
0.103772
0.104856
0.105841
0.106737
0.107552
0.108292
0.108965
0.109577
0.110133
0.110639
0.111098
0.111516
0.111896
0.112241
0.112555
0.112841
0.1131
0.113336
0.113551
0.113745
0.113923
0.114084
0.11423
0.0222947
0.0224412
0.0226023
0.0227795
0.0229745
0.0231889
0.0234248
0.0236843
0.0239697
0.0242837
0.024629
0.0250089
0.0254268
0.0258865
0.0263921
0.0269483
0.0275601
0.0282331
0.0289734
0.0297878
0.0306836
0.0316689
0.0327528
0.033945
0.0352565
0.0366992
0.0382861
0.0400317
0.0419519
0.044064
0.0463874
0.0489432
0.0517545
0.0548469
0.0582486
0.0619904
0.0661065
0.0704185
0.0745346
0.0782764
0.0816781
0.0847705
0.0875818
0.0901376
0.092461
0.0945731
0.0964933
0.0982389
0.0998258
0.101268
0.10258
0.103772
0.104856
0.105841
0.106737
0.107552
0.108292
0.108965
0.109577
0.110133
0.110639
0.111098
0.111516
0.111896
0.112241
0.112555
0.112841
0.1131
0.113336
0.113551
0.113745
0.113923
0.114084
0.11423
0.0222947
0.0224412
0.0226023
0.0227795
0.0229745
0.0231889
0.0234248
0.0236843
0.0239697
0.0242837
0.024629
0.0250089
0.0254268
0.0258865
0.0263921
0.0269483
0.0275601
0.0282331
0.0289734
0.0297878
0.0306836
0.0316689
0.0327528
0.033945
0.0352565
0.0366992
0.0382861
0.0400317
0.0419519
0.044064
0.0463874
0.0489432
0.0517545
0.0548469
0.0582486
0.0619904
0.0661065
0.0704185
0.0745346
0.0782764
0.0816781
0.0847705
0.0875818
0.0901376
0.092461
0.0945731
0.0964933
0.0982389
0.0998258
0.101268
0.10258
0.103772
0.104856
0.105841
0.106737
0.107552
0.108292
0.108965
0.109577
0.110133
0.110639
0.111098
0.111516
0.111896
0.112241
0.112555
0.112841
0.1131
0.113336
0.113551
0.113745
0.113923
0.114084
0.11423
0.0222947
0.0224412
0.0226023
0.0227795
0.0229745
0.0231889
0.0234248
0.0236843
0.0239697
0.0242837
0.024629
0.0250089
0.0254268
0.0258865
0.0263921
0.0269483
0.0275601
0.0282331
0.0289734
0.0297878
0.0306836
0.0316689
0.0327528
0.033945
0.0352565
0.0366992
0.0382861
0.0400317
0.0419519
0.044064
0.0463874
0.0489432
0.0517545
0.0548469
0.0582486
0.0619904
0.0661065
0.0704185
0.0745346
0.0782764
0.0816781
0.0847705
0.0875818
0.0901376
0.092461
0.0945731
0.0964933
0.0982389
0.0998258
0.101268
0.10258
0.103772
0.104856
0.105841
0.106737
0.107552
0.108292
0.108965
0.109577
0.110133
0.110639
0.111098
0.111516
0.111896
0.112241
0.112555
0.112841
0.1131
0.113336
0.113551
0.113745
0.113923
0.114084
0.11423
0.0222947
0.0224412
0.0226023
0.0227795
0.0229745
0.0231889
0.0234248
0.0236843
0.0239697
0.0242837
0.024629
0.0250089
0.0254268
0.0258865
0.0263921
0.0269483
0.0275601
0.0282331
0.0289734
0.0297878
0.0306836
0.0316689
0.0327528
0.033945
0.0352565
0.0366992
0.0382861
0.0400317
0.0419519
0.044064
0.0463874
0.0489432
0.0517545
0.0548469
0.0582486
0.0619904
0.0661065
0.0704185
0.0745346
0.0782764
0.0816781
0.0847705
0.0875818
0.0901376
0.092461
0.0945731
0.0964933
0.0982389
0.0998258
0.101268
0.10258
0.103772
0.104856
0.105841
0.106737
0.107552
0.108292
0.108965
0.109577
0.110133
0.110639
0.111098
0.111516
0.111896
0.112241
0.112555
0.112841
0.1131
0.113336
0.113551
0.113745
0.113923
0.114084
0.11423
0.0222947
0.0224412
0.0226023
0.0227795
0.0229745
0.0231889
0.0234248
0.0236843
0.0239697
0.0242837
0.024629
0.0250089
0.0254268
0.0258865
0.0263921
0.0269483
0.0275601
0.0282331
0.0289734
0.0297878
0.0306836
0.0316689
0.0327528
0.033945
0.0352565
0.0366992
0.0382861
0.0400317
0.0419519
0.044064
0.0463874
0.0489432
0.0517545
0.0548469
0.0582486
0.0619904
0.0661065
0.0704185
0.0745346
0.0782764
0.0816781
0.0847705
0.0875818
0.0901376
0.092461
0.0945731
0.0964933
0.0982389
0.0998258
0.101268
0.10258
0.103772
0.104856
0.105841
0.106737
0.107552
0.108292
0.108965
0.109577
0.110133
0.110639
0.111098
0.111516
0.111896
0.112241
0.112555
0.112841
0.1131
0.113336
0.113551
0.113745
0.113923
0.114084
0.11423
0.0222947
0.0224412
0.0226023
0.0227795
0.0229745
0.0231889
0.0234248
0.0236843
0.0239697
0.0242837
0.024629
0.0250089
0.0254268
0.0258865
0.0263921
0.0269483
0.0275601
0.0282331
0.0289734
0.0297878
0.0306836
0.0316689
0.0327528
0.033945
0.0352565
0.0366992
0.0382861
0.0400317
0.0419519
0.044064
0.0463874
0.0489432
0.0517545
0.0548469
0.0582486
0.0619904
0.0661065
0.0704185
0.0745346
0.0782764
0.0816781
0.0847705
0.0875818
0.0901376
0.092461
0.0945731
0.0964933
0.0982389
0.0998258
0.101268
0.10258
0.103772
0.104856
0.105841
0.106737
0.107552
0.108292
0.108965
0.109577
0.110133
0.110639
0.111098
0.111516
0.111896
0.112241
0.112555
0.112841
0.1131
0.113336
0.113551
0.113745
0.113923
0.114084
0.11423
0.0222947
0.0224412
0.0226023
0.0227795
0.0229745
0.0231889
0.0234248
0.0236843
0.0239697
0.0242837
0.024629
0.0250089
0.0254268
0.0258865
0.0263921
0.0269483
0.0275601
0.0282331
0.0289734
0.0297878
0.0306836
0.0316689
0.0327528
0.033945
0.0352565
0.0366992
0.0382861
0.0400317
0.0419519
0.044064
0.0463874
0.0489432
0.0517545
0.0548469
0.0582486
0.0619904
0.0661065
0.0704185
0.0745346
0.0782764
0.0816781
0.0847705
0.0875818
0.0901376
0.092461
0.0945731
0.0964933
0.0982389
0.0998258
0.101268
0.10258
0.103772
0.104856
0.105841
0.106737
0.107552
0.108292
0.108965
0.109577
0.110133
0.110639
0.111098
0.111516
0.111896
0.112241
0.112555
0.112841
0.1131
0.113336
0.113551
0.113745
0.113923
0.114084
0.11423
0.0222947
0.0224412
0.0226023
0.0227795
0.0229745
0.0231889
0.0234248
0.0236843
0.0239697
0.0242837
0.024629
0.0250089
0.0254268
0.0258865
0.0263921
0.0269483
0.0275601
0.0282331
0.0289734
0.0297878
0.0306836
0.0316689
0.0327528
0.033945
0.0352565
0.0366992
0.0382861
0.0400317
0.0419519
0.044064
0.0463874
0.0489432
0.0517545
0.0548469
0.0582486
0.0619904
0.0661065
0.0704185
0.0745346
0.0782764
0.0816781
0.0847705
0.0875818
0.0901376
0.092461
0.0945731
0.0964933
0.0982389
0.0998258
0.101268
0.10258
0.103772
0.104856
0.105841
0.106737
0.107552
0.108292
0.108965
0.109577
0.110133
0.110639
0.111098
0.111516
0.111896
0.112241
0.112555
0.112841
0.1131
0.113336
0.113551
0.113745
0.113923
0.114084
0.11423
0.0222947
0.0224412
0.0226023
0.0227795
0.0229745
0.0231889
0.0234248
0.0236843
0.0239697
0.0242837
0.024629
0.0250089
0.0254268
0.0258865
0.0263921
0.0269483
0.0275601
0.0282331
0.0289734
0.0297878
0.0306836
0.0316689
0.0327528
0.033945
0.0352565
0.0366992
0.0382861
0.0400317
0.0419519
0.044064
0.0463874
0.0489432
0.0517545
0.0548469
0.0582486
0.0619904
0.0661065
0.0704185
0.0745346
0.0782764
0.0816781
0.0847705
0.0875818
0.0901376
0.092461
0.0945731
0.0964933
0.0982389
0.0998258
0.101268
0.10258
0.103772
0.104856
0.105841
0.106737
0.107552
0.108292
0.108965
0.109577
0.110133
0.110639
0.111098
0.111516
0.111896
0.112241
0.112555
0.112841
0.1131
0.113336
0.113551
0.113745
0.113923
0.114084
0.11423
0.0222947
0.0224412
0.0226023
0.0227795
0.0229745
0.0231889
0.0234248
0.0236843
0.0239697
0.0242837
0.024629
0.0250089
0.0254268
0.0258865
0.0263921
0.0269483
0.0275601
0.0282331
0.0289734
0.0297878
0.0306836
0.0316689
0.0327528
0.033945
0.0352565
0.0366992
0.0382861
0.0400317
0.0419519
0.044064
0.0463874
0.0489432
0.0517545
0.0548469
0.0582486
0.0619904
0.0661065
0.0704185
0.0745346
0.0782764
0.0816781
0.0847705
0.0875818
0.0901376
0.092461
0.0945731
0.0964933
0.0982389
0.0998258
0.101268
0.10258
0.103772
0.104856
0.105841
0.106737
0.107552
0.108292
0.108965
0.109577
0.110133
0.110639
0.111098
0.111516
0.111896
0.112241
0.112555
0.112841
0.1131
0.113336
0.113551
0.113745
0.113923
0.114084
0.11423
0.0222947
0.0224412
0.0226023
0.0227795
0.0229745
0.0231889
0.0234248
0.0236843
0.0239697
0.0242837
0.024629
0.0250089
0.0254268
0.0258865
0.0263921
0.0269483
0.0275601
0.0282331
0.0289734
0.0297878
0.0306836
0.0316689
0.0327528
0.033945
0.0352565
0.0366992
0.0382861
0.0400317
0.0419519
0.044064
0.0463874
0.0489432
0.0517545
0.0548469
0.0582486
0.0619904
0.0661065
0.0704185
0.0745346
0.0782764
0.0816781
0.0847705
0.0875818
0.0901376
0.092461
0.0945731
0.0964933
0.0982389
0.0998258
0.101268
0.10258
0.103772
0.104856
0.105841
0.106737
0.107552
0.108292
0.108965
0.109577
0.110133
0.110639
0.111098
0.111516
0.111896
0.112241
0.112555
0.112841
0.1131
0.113336
0.113551
0.113745
0.113923
0.114084
0.11423
0.0222947
0.0224412
0.0226023
0.0227795
0.0229745
0.0231889
0.0234248
0.0236843
0.0239697
0.0242837
0.024629
0.0250089
0.0254268
0.0258865
0.0263921
0.0269483
0.0275601
0.0282331
0.0289734
0.0297878
0.0306836
0.0316689
0.0327528
0.033945
0.0352565
0.0366992
0.0382861
0.0400317
0.0419519
0.044064
0.0463874
0.0489432
0.0517545
0.0548469
0.0582486
0.0619904
0.0661065
0.0704185
0.0745346
0.0782764
0.0816781
0.0847705
0.0875818
0.0901376
0.092461
0.0945731
0.0964933
0.0982389
0.0998258
0.101268
0.10258
0.103772
0.104856
0.105841
0.106737
0.107552
0.108292
0.108965
0.109577
0.110133
0.110639
0.111098
0.111516
0.111896
0.112241
0.112555
0.112841
0.1131
0.113336
0.113551
0.113745
0.113923
0.114084
0.11423
0.0222947
0.0224412
0.0226023
0.0227795
0.0229745
0.0231889
0.0234248
0.0236843
0.0239697
0.0242837
0.024629
0.0250089
0.0254268
0.0258865
0.0263921
0.0269483
0.0275601
0.0282331
0.0289734
0.0297878
0.0306836
0.0316689
0.0327528
0.033945
0.0352565
0.0366992
0.0382861
0.0400317
0.0419519
0.044064
0.0463874
0.0489432
0.0517545
0.0548469
0.0582486
0.0619904
0.0661065
0.0704185
0.0745346
0.0782764
0.0816781
0.0847705
0.0875818
0.0901376
0.092461
0.0945731
0.0964933
0.0982389
0.0998258
0.101268
0.10258
0.103772
0.104856
0.105841
0.106737
0.107552
0.108292
0.108965
0.109577
0.110133
0.110639
0.111098
0.111516
0.111896
0.112241
0.112555
0.112841
0.1131
0.113336
0.113551
0.113745
0.113923
0.114084
0.11423
0.0222947
0.0224412
0.0226023
0.0227795
0.0229745
0.0231889
0.0234248
0.0236843
0.0239697
0.0242837
0.024629
0.0250089
0.0254268
0.0258865
0.0263921
0.0269483
0.0275601
0.0282331
0.0289734
0.0297878
0.0306836
0.0316689
0.0327528
0.033945
0.0352565
0.0366992
0.0382861
0.0400317
0.0419519
0.044064
0.0463874
0.0489432
0.0517545
0.0548469
0.0582486
0.0619904
0.0661065
0.0704185
0.0745346
0.0782764
0.0816781
0.0847705
0.0875818
0.0901376
0.092461
0.0945731
0.0964933
0.0982389
0.0998258
0.101268
0.10258
0.103772
0.104856
0.105841
0.106737
0.107552
0.108292
0.108965
0.109577
0.110133
0.110639
0.111098
0.111516
0.111896
0.112241
0.112555
0.112841
0.1131
0.113336
0.113551
0.113745
0.113923
0.114084
0.11423
0.0222947
0.0224412
0.0226023
0.0227795
0.0229745
0.0231889
0.0234248
0.0236843
0.0239697
0.0242837
0.024629
0.0250089
0.0254268
0.0258865
0.0263921
0.0269483
0.0275601
0.0282331
0.0289734
0.0297878
0.0306836
0.0316689
0.0327528
0.033945
0.0352565
0.0366992
0.0382861
0.0400317
0.0419519
0.044064
0.0463874
0.0489432
0.0517545
0.0548469
0.0582486
0.0619904
0.0661065
0.0704185
0.0745346
0.0782764
0.0816781
0.0847705
0.0875818
0.0901376
0.092461
0.0945731
0.0964933
0.0982389
0.0998258
0.101268
0.10258
0.103772
0.104856
0.105841
0.106737
0.107552
0.108292
0.108965
0.109577
0.110133
0.110639
0.111098
0.111516
0.111896
0.112241
0.112555
0.112841
0.1131
0.113336
0.113551
0.113745
0.113923
0.114084
0.11423
0.0222947
0.0224412
0.0226023
0.0227795
0.0229745
0.0231889
0.0234248
0.0236843
0.0239697
0.0242837
0.024629
0.0250089
0.0254268
0.0258865
0.0263921
0.0269483
0.0275601
0.0282331
0.0289734
0.0297878
0.0306836
0.0316689
0.0327528
0.033945
0.0352565
0.0366992
0.0382861
0.0400317
0.0419519
0.044064
0.0463874
0.0489432
0.0517545
0.0548469
0.0582486
0.0619904
0.0661065
0.0704185
0.0745346
0.0782764
0.0816781
0.0847705
0.0875818
0.0901376
0.092461
0.0945731
0.0964933
0.0982389
0.0998258
0.101268
0.10258
0.103772
0.104856
0.105841
0.106737
0.107552
0.108292
0.108965
0.109577
0.110133
0.110639
0.111098
0.111516
0.111896
0.112241
0.112555
0.112841
0.1131
0.113336
0.113551
0.113745
0.113923
0.114084
0.11423
0.0222947
0.0224412
0.0226023
0.0227795
0.0229745
0.0231889
0.0234248
0.0236843
0.0239697
0.0242837
0.024629
0.0250089
0.0254268
0.0258865
0.0263921
0.0269483
0.0275601
0.0282331
0.0289734
0.0297878
0.0306836
0.0316689
0.0327528
0.033945
0.0352565
0.0366992
0.0382861
0.0400317
0.0419519
0.044064
0.0463874
0.0489432
0.0517545
0.0548469
0.0582486
0.0619904
0.0661065
0.0704185
0.0745346
0.0782764
0.0816781
0.0847705
0.0875818
0.0901376
0.092461
0.0945731
0.0964933
0.0982389
0.0998258
0.101268
0.10258
0.103772
0.104856
0.105841
0.106737
0.107552
0.108292
0.108965
0.109577
0.110133
0.110639
0.111098
0.111516
0.111896
0.112241
0.112555
0.112841
0.1131
0.113336
0.113551
0.113745
0.113923
0.114084
0.11423
0.0222947
0.0224412
0.0226023
0.0227795
0.0229745
0.0231889
0.0234248
0.0236843
0.0239697
0.0242837
0.024629
0.0250089
0.0254268
0.0258865
0.0263921
0.0269483
0.0275601
0.0282331
0.0289734
0.0297878
0.0306836
0.0316689
0.0327528
0.033945
0.0352565
0.0366992
0.0382861
0.0400317
0.0419519
0.044064
0.0463874
0.0489432
0.0517545
0.0548469
0.0582486
0.0619904
0.0661065
0.0704185
0.0745346
0.0782764
0.0816781
0.0847705
0.0875818
0.0901376
0.092461
0.0945731
0.0964933
0.0982389
0.0998258
0.101268
0.10258
0.103772
0.104856
0.105841
0.106737
0.107552
0.108292
0.108965
0.109577
0.110133
0.110639
0.111098
0.111516
0.111896
0.112241
0.112555
0.112841
0.1131
0.113336
0.113551
0.113745
0.113923
0.114084
0.11423
0.0222947
0.0224412
0.0226023
0.0227795
0.0229745
0.0231889
0.0234248
0.0236843
0.0239697
0.0242837
0.024629
0.0250089
0.0254268
0.0258865
0.0263921
0.0269483
0.0275601
0.0282331
0.0289734
0.0297878
0.0306836
0.0316689
0.0327528
0.033945
0.0352565
0.0366992
0.0382861
0.0400317
0.0419519
0.044064
0.0463874
0.0489432
0.0517545
0.0548469
0.0582486
0.0619904
0.0661065
0.0704185
0.0745346
0.0782764
0.0816781
0.0847705
0.0875818
0.0901376
0.092461
0.0945731
0.0964933
0.0982389
0.0998258
0.101268
0.10258
0.103772
0.104856
0.105841
0.106737
0.107552
0.108292
0.108965
0.109577
0.110133
0.110639
0.111098
0.111516
0.111896
0.112241
0.112555
0.112841
0.1131
0.113336
0.113551
0.113745
0.113923
0.114084
0.11423
0.0222947
0.0224412
0.0226023
0.0227795
0.0229745
0.0231889
0.0234248
0.0236843
0.0239697
0.0242837
0.024629
0.0250089
0.0254268
0.0258865
0.0263921
0.0269483
0.0275601
0.0282331
0.0289734
0.0297878
0.0306836
0.0316689
0.0327528
0.033945
0.0352565
0.0366992
0.0382861
0.0400317
0.0419519
0.044064
0.0463874
0.0489432
0.0517545
0.0548469
0.0582486
0.0619904
0.0661065
0.0704185
0.0745346
0.0782764
0.0816781
0.0847705
0.0875818
0.0901376
0.092461
0.0945731
0.0964933
0.0982389
0.0998258
0.101268
0.10258
0.103772
0.104856
0.105841
0.106737
0.107552
0.108292
0.108965
0.109577
0.110133
0.110639
0.111098
0.111516
0.111896
0.112241
0.112555
0.112841
0.1131
0.113336
0.113551
0.113745
0.113923
0.114084
0.11423
0.0222947
0.0224412
0.0226023
0.0227795
0.0229745
0.0231889
0.0234248
0.0236843
0.0239697
0.0242837
0.024629
0.0250089
0.0254268
0.0258865
0.0263921
0.0269483
0.0275601
0.0282331
0.0289734
0.0297878
0.0306836
0.0316689
0.0327528
0.033945
0.0352565
0.0366992
0.0382861
0.0400317
0.0419519
0.044064
0.0463874
0.0489432
0.0517545
0.0548469
0.0582486
0.0619904
0.0661065
0.0704185
0.0745346
0.0782764
0.0816781
0.0847705
0.0875818
0.0901376
0.092461
0.0945731
0.0964933
0.0982389
0.0998258
0.101268
0.10258
0.103772
0.104856
0.105841
0.106737
0.107552
0.108292
0.108965
0.109577
0.110133
0.110639
0.111098
0.111516
0.111896
0.112241
0.112555
0.112841
0.1131
0.113336
0.113551
0.113745
0.113923
0.114084
0.11423
0.0222947
0.0224412
0.0226023
0.0227795
0.0229745
0.0231889
0.0234248
0.0236843
0.0239697
0.0242837
0.024629
0.0250089
0.0254268
0.0258865
0.0263921
0.0269483
0.0275601
0.0282331
0.0289734
0.0297878
0.0306836
0.0316689
0.0327528
0.033945
0.0352565
0.0366992
0.0382861
0.0400317
0.0419519
0.044064
0.0463874
0.0489432
0.0517545
0.0548469
0.0582486
0.0619904
0.0661065
0.0704185
0.0745346
0.0782764
0.0816781
0.0847705
0.0875818
0.0901376
0.092461
0.0945731
0.0964933
0.0982389
0.0998258
0.101268
0.10258
0.103772
0.104856
0.105841
0.106737
0.107552
0.108292
0.108965
0.109577
0.110133
0.110639
0.111098
0.111516
0.111896
0.112241
0.112555
0.112841
0.1131
0.113336
0.113551
0.113745
0.113923
0.114084
0.11423
0.0222947
0.0224412
0.0226023
0.0227795
0.0229745
0.0231889
0.0234248
0.0236843
0.0239697
0.0242837
0.024629
0.0250089
0.0254268
0.0258865
0.0263921
0.0269483
0.0275601
0.0282331
0.0289734
0.0297878
0.0306836
0.0316689
0.0327528
0.033945
0.0352565
0.0366992
0.0382861
0.0400317
0.0419519
0.044064
0.0463874
0.0489432
0.0517545
0.0548469
0.0582486
0.0619904
0.0661065
0.0704185
0.0745346
0.0782764
0.0816781
0.0847705
0.0875818
0.0901376
0.092461
0.0945731
0.0964933
0.0982389
0.0998258
0.101268
0.10258
0.103772
0.104856
0.105841
0.106737
0.107552
0.108292
0.108965
0.109577
0.110133
0.110639
0.111098
0.111516
0.111896
0.112241
0.112555
0.112841
0.1131
0.113336
0.113551
0.113745
0.113923
0.114084
0.11423
0.0222947
0.0224412
0.0226023
0.0227795
0.0229745
0.0231889
0.0234248
0.0236843
0.0239697
0.0242837
0.024629
0.0250089
0.0254268
0.0258865
0.0263921
0.0269483
0.0275601
0.0282331
0.0289734
0.0297878
0.0306836
0.0316689
0.0327528
0.033945
0.0352565
0.0366992
0.0382861
0.0400317
0.0419519
0.044064
0.0463874
0.0489432
0.0517545
0.0548469
0.0582486
0.0619904
0.0661065
0.0704185
0.0745346
0.0782764
0.0816781
0.0847705
0.0875818
0.0901376
0.092461
0.0945731
0.0964933
0.0982389
0.0998258
0.101268
0.10258
0.103772
0.104856
0.105841
0.106737
0.107552
0.108292
0.108965
0.109577
0.110133
0.110639
0.111098
0.111516
0.111896
0.112241
0.112555
0.112841
0.1131
0.113336
0.113551
0.113745
0.113923
0.114084
0.11423
0.0222947
0.0224412
0.0226023
0.0227795
0.0229745
0.0231889
0.0234248
0.0236843
0.0239697
0.0242837
0.024629
0.0250089
0.0254268
0.0258865
0.0263921
0.0269483
0.0275601
0.0282331
0.0289734
0.0297878
0.0306836
0.0316689
0.0327528
0.033945
0.0352565
0.0366992
0.0382861
0.0400317
0.0419519
0.044064
0.0463874
0.0489432
0.0517545
0.0548469
0.0582486
0.0619904
0.0661065
0.0704185
0.0745346
0.0782764
0.0816781
0.0847705
0.0875818
0.0901376
0.092461
0.0945731
0.0964933
0.0982389
0.0998258
0.101268
0.10258
0.103772
0.104856
0.105841
0.106737
0.107552
0.108292
0.108965
0.109577
0.110133
0.110639
0.111098
0.111516
0.111896
0.112241
0.112555
0.112841
0.1131
0.113336
0.113551
0.113745
0.113923
0.114084
0.11423
0.0222947
0.0224412
0.0226023
0.0227795
0.0229745
0.0231889
0.0234248
0.0236843
0.0239697
0.0242837
0.024629
0.0250089
0.0254268
0.0258865
0.0263921
0.0269483
0.0275601
0.0282331
0.0289734
0.0297878
0.0306836
0.0316689
0.0327528
0.033945
0.0352565
0.0366992
0.0382861
0.0400317
0.0419519
0.044064
0.0463874
0.0489432
0.0517545
0.0548469
0.0582486
0.0619904
0.0661065
0.0704185
0.0745346
0.0782764
0.0816781
0.0847705
0.0875818
0.0901376
0.092461
0.0945731
0.0964933
0.0982389
0.0998258
0.101268
0.10258
0.103772
0.104856
0.105841
0.106737
0.107552
0.108292
0.108965
0.109577
0.110133
0.110639
0.111098
0.111516
0.111896
0.112241
0.112555
0.112841
0.1131
0.113336
0.113551
0.113745
0.113923
0.114084
0.11423
0.0222947
0.0224412
0.0226023
0.0227795
0.0229745
0.0231889
0.0234248
0.0236843
0.0239697
0.0242837
0.024629
0.0250089
0.0254268
0.0258865
0.0263921
0.0269483
0.0275601
0.0282331
0.0289734
0.0297878
0.0306836
0.0316689
0.0327528
0.033945
0.0352565
0.0366992
0.0382861
0.0400317
0.0419519
0.044064
0.0463874
0.0489432
0.0517545
0.0548469
0.0582486
0.0619904
0.0661065
0.0704185
0.0745346
0.0782764
0.0816781
0.0847705
0.0875818
0.0901376
0.092461
0.0945731
0.0964933
0.0982389
0.0998258
0.101268
0.10258
0.103772
0.104856
0.105841
0.106737
0.107552
0.108292
0.108965
0.109577
0.110133
0.110639
0.111098
0.111516
0.111896
0.112241
0.112555
0.112841
0.1131
0.113336
0.113551
0.113745
0.113923
0.114084
0.11423
0.0222947
0.0224412
0.0226023
0.0227795
0.0229745
0.0231889
0.0234248
0.0236843
0.0239697
0.0242837
0.024629
0.0250089
0.0254268
0.0258865
0.0263921