/*--------------------------------*- C++ -*----------------------------------*\
| =========                 |                                                 |
| \\      /  F ield         | OpenFOAM: The Open Source CFD Toolbox           |
|  \\    /   O peration     | Version:  5.x                                   |
|   \\  /    A nd           | Web:      www.OpenFOAM.org                      |
|    \\/     M anipulation  |                                                 |
\*---------------------------------------------------------------------------*/
FoamFile
{
    version     2.0;
    format      ascii;
    class       volVectorField;
    location    "constant/polyMesh";
    object      Cxy;
}
// * * * * * * * * * * * * * * * * * * * * * * * * * * * * * * * * * * * * * //

dimensions      [0 1 0 0 0 0 0];

internalField   nonuniform List<vector> 
130824
(
(-1.64973 0.0191154 0.003175)
(-1.64973 0.0192528 0.003175)
(-1.64973 0.0194039 0.003175)
(-1.64973 0.0195701 0.003175)
(-1.64973 0.0197529 0.003175)
(-1.64973 0.019954 0.003175)
(-1.64973 0.0201753 0.003175)
(-1.64973 0.0204186 0.003175)
(-1.64973 0.0206863 0.003175)
(-1.64973 0.0209807 0.003175)
(-1.64973 0.0213046 0.003175)
(-1.64973 0.0216609 0.003175)
(-1.64973 0.0220528 0.003175)
(-1.64973 0.0224839 0.003175)
(-1.64973 0.0229582 0.003175)
(-1.64973 0.0234798 0.003175)
(-1.64973 0.0240536 0.003175)
(-1.64973 0.0246848 0.003175)
(-1.64973 0.0253791 0.003175)
(-1.64973 0.0261428 0.003175)
(-1.64973 0.0269829 0.003175)
(-1.64973 0.027907 0.003175)
(-1.64973 0.0289235 0.003175)
(-1.64973 0.0300417 0.003175)
(-1.64973 0.0312717 0.003175)
(-1.64973 0.0326247 0.003175)
(-1.64973 0.034113 0.003175)
(-1.64973 0.0357501 0.003175)
(-1.64973 0.0375509 0.003175)
(-1.64973 0.0395319 0.003175)
(-1.64973 0.0417109 0.003175)
(-1.64973 0.0441078 0.003175)
(-1.64973 0.0467444 0.003175)
(-1.64973 0.0496446 0.003175)
(-1.64973 0.0528349 0.003175)
(-1.64973 0.0563442 0.003175)
(-1.64973 0.0602045 0.003175)
(-1.64973 0.0644508 0.003175)
(-1.64973 0.0688992 0.003175)
(-1.64973 0.0731455 0.003175)
(-1.64973 0.0770058 0.003175)
(-1.64973 0.0805151 0.003175)
(-1.64973 0.0837054 0.003175)
(-1.64973 0.0866056 0.003175)
(-1.64973 0.0892422 0.003175)
(-1.64973 0.0916391 0.003175)
(-1.64973 0.0938181 0.003175)
(-1.64973 0.0957991 0.003175)
(-1.64973 0.0975999 0.003175)
(-1.64973 0.099237 0.003175)
(-1.64973 0.100725 0.003175)
(-1.64973 0.102078 0.003175)
(-1.64973 0.103308 0.003175)
(-1.64973 0.104426 0.003175)
(-1.64973 0.105443 0.003175)
(-1.64973 0.106367 0.003175)
(-1.64973 0.107207 0.003175)
(-1.64973 0.107971 0.003175)
(-1.64973 0.108665 0.003175)
(-1.64973 0.109296 0.003175)
(-1.64973 0.10987 0.003175)
(-1.64973 0.110392 0.003175)
(-1.64973 0.110866 0.003175)
(-1.64973 0.111297 0.003175)
(-1.64973 0.111689 0.003175)
(-1.64973 0.112045 0.003175)
(-1.64973 0.112369 0.003175)
(-1.64973 0.112664 0.003175)
(-1.64973 0.112931 0.003175)
(-1.64973 0.113175 0.003175)
(-1.64973 0.113396 0.003175)
(-1.64973 0.113597 0.003175)
(-1.64973 0.11378 0.003175)
(-1.64973 0.113946 0.003175)
(-1.64973 0.114097 0.003175)
(-1.64973 0.114235 0.003175)
(-1.64719 0.0191154 0.003175)
(-1.64719 0.0192528 0.003175)
(-1.64719 0.0194039 0.003175)
(-1.64719 0.0195701 0.003175)
(-1.64719 0.0197529 0.003175)
(-1.64719 0.019954 0.003175)
(-1.64719 0.0201753 0.003175)
(-1.64719 0.0204186 0.003175)
(-1.64719 0.0206863 0.003175)
(-1.64719 0.0209807 0.003175)
(-1.64719 0.0213046 0.003175)
(-1.64719 0.0216609 0.003175)
(-1.64719 0.0220528 0.003175)
(-1.64719 0.0224839 0.003175)
(-1.64719 0.0229582 0.003175)
(-1.64719 0.0234798 0.003175)
(-1.64719 0.0240536 0.003175)
(-1.64719 0.0246848 0.003175)
(-1.64719 0.0253791 0.003175)
(-1.64719 0.0261428 0.003175)
(-1.64719 0.0269829 0.003175)
(-1.64719 0.027907 0.003175)
(-1.64719 0.0289235 0.003175)
(-1.64719 0.0300417 0.003175)
(-1.64719 0.0312717 0.003175)
(-1.64719 0.0326247 0.003175)
(-1.64719 0.034113 0.003175)
(-1.64719 0.0357501 0.003175)
(-1.64719 0.0375509 0.003175)
(-1.64719 0.0395319 0.003175)
(-1.64719 0.0417109 0.003175)
(-1.64719 0.0441078 0.003175)
(-1.64719 0.0467444 0.003175)
(-1.64719 0.0496446 0.003175)
(-1.64719 0.0528349 0.003175)
(-1.64719 0.0563442 0.003175)
(-1.64719 0.0602045 0.003175)
(-1.64719 0.0644508 0.003175)
(-1.64719 0.0688992 0.003175)
(-1.64719 0.0731455 0.003175)
(-1.64719 0.0770058 0.003175)
(-1.64719 0.0805151 0.003175)
(-1.64719 0.0837054 0.003175)
(-1.64719 0.0866056 0.003175)
(-1.64719 0.0892422 0.003175)
(-1.64719 0.0916391 0.003175)
(-1.64719 0.0938181 0.003175)
(-1.64719 0.0957991 0.003175)
(-1.64719 0.0975999 0.003175)
(-1.64719 0.099237 0.003175)
(-1.64719 0.100725 0.003175)
(-1.64719 0.102078 0.003175)
(-1.64719 0.103308 0.003175)
(-1.64719 0.104426 0.003175)
(-1.64719 0.105443 0.003175)
(-1.64719 0.106367 0.003175)
(-1.64719 0.107207 0.003175)
(-1.64719 0.107971 0.003175)
(-1.64719 0.108665 0.003175)
(-1.64719 0.109296 0.003175)
(-1.64719 0.10987 0.003175)
(-1.64719 0.110392 0.003175)
(-1.64719 0.110866 0.003175)
(-1.64719 0.111297 0.003175)
(-1.64719 0.111689 0.003175)
(-1.64719 0.112045 0.003175)
(-1.64719 0.112369 0.003175)
(-1.64719 0.112664 0.003175)
(-1.64719 0.112931 0.003175)
(-1.64719 0.113175 0.003175)
(-1.64719 0.113396 0.003175)
(-1.64719 0.113597 0.003175)
(-1.64719 0.11378 0.003175)
(-1.64719 0.113946 0.003175)
(-1.64719 0.114097 0.003175)
(-1.64719 0.114235 0.003175)
(-1.64465 0.0191154 0.003175)
(-1.64465 0.0192528 0.003175)
(-1.64465 0.0194039 0.003175)
(-1.64465 0.0195701 0.003175)
(-1.64465 0.0197529 0.003175)
(-1.64465 0.019954 0.003175)
(-1.64465 0.0201753 0.003175)
(-1.64465 0.0204186 0.003175)
(-1.64465 0.0206863 0.003175)
(-1.64465 0.0209807 0.003175)
(-1.64465 0.0213046 0.003175)
(-1.64465 0.0216609 0.003175)
(-1.64465 0.0220528 0.003175)
(-1.64465 0.0224839 0.003175)
(-1.64465 0.0229582 0.003175)
(-1.64465 0.0234798 0.003175)
(-1.64465 0.0240536 0.003175)
(-1.64465 0.0246848 0.003175)
(-1.64465 0.0253791 0.003175)
(-1.64465 0.0261428 0.003175)
(-1.64465 0.0269829 0.003175)
(-1.64465 0.027907 0.003175)
(-1.64465 0.0289235 0.003175)
(-1.64465 0.0300417 0.003175)
(-1.64465 0.0312717 0.003175)
(-1.64465 0.0326247 0.003175)
(-1.64465 0.034113 0.003175)
(-1.64465 0.0357501 0.003175)
(-1.64465 0.0375509 0.003175)
(-1.64465 0.0395319 0.003175)
(-1.64465 0.0417109 0.003175)
(-1.64465 0.0441078 0.003175)
(-1.64465 0.0467444 0.003175)
(-1.64465 0.0496446 0.003175)
(-1.64465 0.0528349 0.003175)
(-1.64465 0.0563442 0.003175)
(-1.64465 0.0602045 0.003175)
(-1.64465 0.0644508 0.003175)
(-1.64465 0.0688992 0.003175)
(-1.64465 0.0731455 0.003175)
(-1.64465 0.0770058 0.003175)
(-1.64465 0.0805151 0.003175)
(-1.64465 0.0837054 0.003175)
(-1.64465 0.0866056 0.003175)
(-1.64465 0.0892422 0.003175)
(-1.64465 0.0916391 0.003175)
(-1.64465 0.0938181 0.003175)
(-1.64465 0.0957991 0.003175)
(-1.64465 0.0975999 0.003175)
(-1.64465 0.099237 0.003175)
(-1.64465 0.100725 0.003175)
(-1.64465 0.102078 0.003175)
(-1.64465 0.103308 0.003175)
(-1.64465 0.104426 0.003175)
(-1.64465 0.105443 0.003175)
(-1.64465 0.106367 0.003175)
(-1.64465 0.107207 0.003175)
(-1.64465 0.107971 0.003175)
(-1.64465 0.108665 0.003175)
(-1.64465 0.109296 0.003175)
(-1.64465 0.10987 0.003175)
(-1.64465 0.110392 0.003175)
(-1.64465 0.110866 0.003175)
(-1.64465 0.111297 0.003175)
(-1.64465 0.111689 0.003175)
(-1.64465 0.112045 0.003175)
(-1.64465 0.112369 0.003175)
(-1.64465 0.112664 0.003175)
(-1.64465 0.112931 0.003175)
(-1.64465 0.113175 0.003175)
(-1.64465 0.113396 0.003175)
(-1.64465 0.113597 0.003175)
(-1.64465 0.11378 0.003175)
(-1.64465 0.113946 0.003175)
(-1.64465 0.114097 0.003175)
(-1.64465 0.114235 0.003175)
(-1.64211 0.0191154 0.003175)
(-1.64211 0.0192528 0.003175)
(-1.64211 0.0194039 0.003175)
(-1.64211 0.0195701 0.003175)
(-1.64211 0.0197529 0.003175)
(-1.64211 0.019954 0.003175)
(-1.64211 0.0201753 0.003175)
(-1.64211 0.0204186 0.003175)
(-1.64211 0.0206863 0.003175)
(-1.64211 0.0209807 0.003175)
(-1.64211 0.0213046 0.003175)
(-1.64211 0.0216609 0.003175)
(-1.64211 0.0220528 0.003175)
(-1.64211 0.0224839 0.003175)
(-1.64211 0.0229582 0.003175)
(-1.64211 0.0234798 0.003175)
(-1.64211 0.0240536 0.003175)
(-1.64211 0.0246848 0.003175)
(-1.64211 0.0253791 0.003175)
(-1.64211 0.0261428 0.003175)
(-1.64211 0.0269829 0.003175)
(-1.64211 0.027907 0.003175)
(-1.64211 0.0289235 0.003175)
(-1.64211 0.0300417 0.003175)
(-1.64211 0.0312717 0.003175)
(-1.64211 0.0326247 0.003175)
(-1.64211 0.034113 0.003175)
(-1.64211 0.0357501 0.003175)
(-1.64211 0.0375509 0.003175)
(-1.64211 0.0395319 0.003175)
(-1.64211 0.0417109 0.003175)
(-1.64211 0.0441078 0.003175)
(-1.64211 0.0467444 0.003175)
(-1.64211 0.0496446 0.003175)
(-1.64211 0.0528349 0.003175)
(-1.64211 0.0563442 0.003175)
(-1.64211 0.0602045 0.003175)
(-1.64211 0.0644508 0.003175)
(-1.64211 0.0688992 0.003175)
(-1.64211 0.0731455 0.003175)
(-1.64211 0.0770058 0.003175)
(-1.64211 0.0805151 0.003175)
(-1.64211 0.0837054 0.003175)
(-1.64211 0.0866056 0.003175)
(-1.64211 0.0892422 0.003175)
(-1.64211 0.0916391 0.003175)
(-1.64211 0.0938181 0.003175)
(-1.64211 0.0957991 0.003175)
(-1.64211 0.0975999 0.003175)
(-1.64211 0.099237 0.003175)
(-1.64211 0.100725 0.003175)
(-1.64211 0.102078 0.003175)
(-1.64211 0.103308 0.003175)
(-1.64211 0.104426 0.003175)
(-1.64211 0.105443 0.003175)
(-1.64211 0.106367 0.003175)
(-1.64211 0.107207 0.003175)
(-1.64211 0.107971 0.003175)
(-1.64211 0.108665 0.003175)
(-1.64211 0.109296 0.003175)
(-1.64211 0.10987 0.003175)
(-1.64211 0.110392 0.003175)
(-1.64211 0.110866 0.003175)
(-1.64211 0.111297 0.003175)
(-1.64211 0.111689 0.003175)
(-1.64211 0.112045 0.003175)
(-1.64211 0.112369 0.003175)
(-1.64211 0.112664 0.003175)
(-1.64211 0.112931 0.003175)
(-1.64211 0.113175 0.003175)
(-1.64211 0.113396 0.003175)
(-1.64211 0.113597 0.003175)
(-1.64211 0.11378 0.003175)
(-1.64211 0.113946 0.003175)
(-1.64211 0.114097 0.003175)
(-1.64211 0.114235 0.003175)
(-1.63957 0.0191154 0.003175)
(-1.63957 0.0192528 0.003175)
(-1.63957 0.0194039 0.003175)
(-1.63957 0.0195701 0.003175)
(-1.63957 0.0197529 0.003175)
(-1.63957 0.019954 0.003175)
(-1.63957 0.0201753 0.003175)
(-1.63957 0.0204186 0.003175)
(-1.63957 0.0206863 0.003175)
(-1.63957 0.0209807 0.003175)
(-1.63957 0.0213046 0.003175)
(-1.63957 0.0216609 0.003175)
(-1.63957 0.0220528 0.003175)
(-1.63957 0.0224839 0.003175)
(-1.63957 0.0229582 0.003175)
(-1.63957 0.0234798 0.003175)
(-1.63957 0.0240536 0.003175)
(-1.63957 0.0246848 0.003175)
(-1.63957 0.0253791 0.003175)
(-1.63957 0.0261428 0.003175)
(-1.63957 0.0269829 0.003175)
(-1.63957 0.027907 0.003175)
(-1.63957 0.0289235 0.003175)
(-1.63957 0.0300417 0.003175)
(-1.63957 0.0312717 0.003175)
(-1.63957 0.0326247 0.003175)
(-1.63957 0.034113 0.003175)
(-1.63957 0.0357501 0.003175)
(-1.63957 0.0375509 0.003175)
(-1.63957 0.0395319 0.003175)
(-1.63957 0.0417109 0.003175)
(-1.63957 0.0441078 0.003175)
(-1.63957 0.0467444 0.003175)
(-1.63957 0.0496446 0.003175)
(-1.63957 0.0528349 0.003175)
(-1.63957 0.0563442 0.003175)
(-1.63957 0.0602045 0.003175)
(-1.63957 0.0644508 0.003175)
(-1.63957 0.0688992 0.003175)
(-1.63957 0.0731455 0.003175)
(-1.63957 0.0770058 0.003175)
(-1.63957 0.0805151 0.003175)
(-1.63957 0.0837054 0.003175)
(-1.63957 0.0866056 0.003175)
(-1.63957 0.0892422 0.003175)
(-1.63957 0.0916391 0.003175)
(-1.63957 0.0938181 0.003175)
(-1.63957 0.0957991 0.003175)
(-1.63957 0.0975999 0.003175)
(-1.63957 0.099237 0.003175)
(-1.63957 0.100725 0.003175)
(-1.63957 0.102078 0.003175)
(-1.63957 0.103308 0.003175)
(-1.63957 0.104426 0.003175)
(-1.63957 0.105443 0.003175)
(-1.63957 0.106367 0.003175)
(-1.63957 0.107207 0.003175)
(-1.63957 0.107971 0.003175)
(-1.63957 0.108665 0.003175)
(-1.63957 0.109296 0.003175)
(-1.63957 0.10987 0.003175)
(-1.63957 0.110392 0.003175)
(-1.63957 0.110866 0.003175)
(-1.63957 0.111297 0.003175)
(-1.63957 0.111689 0.003175)
(-1.63957 0.112045 0.003175)
(-1.63957 0.112369 0.003175)
(-1.63957 0.112664 0.003175)
(-1.63957 0.112931 0.003175)
(-1.63957 0.113175 0.003175)
(-1.63957 0.113396 0.003175)
(-1.63957 0.113597 0.003175)
(-1.63957 0.11378 0.003175)
(-1.63957 0.113946 0.003175)
(-1.63957 0.114097 0.003175)
(-1.63957 0.114235 0.003175)
(-1.63703 0.0191154 0.003175)
(-1.63703 0.0192528 0.003175)
(-1.63703 0.0194039 0.003175)
(-1.63703 0.0195701 0.003175)
(-1.63703 0.0197529 0.003175)
(-1.63703 0.019954 0.003175)
(-1.63703 0.0201753 0.003175)
(-1.63703 0.0204186 0.003175)
(-1.63703 0.0206863 0.003175)
(-1.63703 0.0209807 0.003175)
(-1.63703 0.0213046 0.003175)
(-1.63703 0.0216609 0.003175)
(-1.63703 0.0220528 0.003175)
(-1.63703 0.0224839 0.003175)
(-1.63703 0.0229582 0.003175)
(-1.63703 0.0234798 0.003175)
(-1.63703 0.0240536 0.003175)
(-1.63703 0.0246848 0.003175)
(-1.63703 0.0253791 0.003175)
(-1.63703 0.0261428 0.003175)
(-1.63703 0.0269829 0.003175)
(-1.63703 0.027907 0.003175)
(-1.63703 0.0289235 0.003175)
(-1.63703 0.0300417 0.003175)
(-1.63703 0.0312717 0.003175)
(-1.63703 0.0326247 0.003175)
(-1.63703 0.034113 0.003175)
(-1.63703 0.0357501 0.003175)
(-1.63703 0.0375509 0.003175)
(-1.63703 0.0395319 0.003175)
(-1.63703 0.0417109 0.003175)
(-1.63703 0.0441078 0.003175)
(-1.63703 0.0467444 0.003175)
(-1.63703 0.0496446 0.003175)
(-1.63703 0.0528349 0.003175)
(-1.63703 0.0563442 0.003175)
(-1.63703 0.0602045 0.003175)
(-1.63703 0.0644508 0.003175)
(-1.63703 0.0688992 0.003175)
(-1.63703 0.0731455 0.003175)
(-1.63703 0.0770058 0.003175)
(-1.63703 0.0805151 0.003175)
(-1.63703 0.0837054 0.003175)
(-1.63703 0.0866056 0.003175)
(-1.63703 0.0892422 0.003175)
(-1.63703 0.0916391 0.003175)
(-1.63703 0.0938181 0.003175)
(-1.63703 0.0957991 0.003175)
(-1.63703 0.0975999 0.003175)
(-1.63703 0.099237 0.003175)
(-1.63703 0.100725 0.003175)
(-1.63703 0.102078 0.003175)
(-1.63703 0.103308 0.003175)
(-1.63703 0.104426 0.003175)
(-1.63703 0.105443 0.003175)
(-1.63703 0.106367 0.003175)
(-1.63703 0.107207 0.003175)
(-1.63703 0.107971 0.003175)
(-1.63703 0.108665 0.003175)
(-1.63703 0.109296 0.003175)
(-1.63703 0.10987 0.003175)
(-1.63703 0.110392 0.003175)
(-1.63703 0.110866 0.003175)
(-1.63703 0.111297 0.003175)
(-1.63703 0.111689 0.003175)
(-1.63703 0.112045 0.003175)
(-1.63703 0.112369 0.003175)
(-1.63703 0.112664 0.003175)
(-1.63703 0.112931 0.003175)
(-1.63703 0.113175 0.003175)
(-1.63703 0.113396 0.003175)
(-1.63703 0.113597 0.003175)
(-1.63703 0.11378 0.003175)
(-1.63703 0.113946 0.003175)
(-1.63703 0.114097 0.003175)
(-1.63703 0.114235 0.003175)
(-1.63449 0.0191154 0.003175)
(-1.63449 0.0192528 0.003175)
(-1.63449 0.0194039 0.003175)
(-1.63449 0.0195701 0.003175)
(-1.63449 0.0197529 0.003175)
(-1.63449 0.019954 0.003175)
(-1.63449 0.0201753 0.003175)
(-1.63449 0.0204186 0.003175)
(-1.63449 0.0206863 0.003175)
(-1.63449 0.0209807 0.003175)
(-1.63449 0.0213046 0.003175)
(-1.63449 0.0216609 0.003175)
(-1.63449 0.0220528 0.003175)
(-1.63449 0.0224839 0.003175)
(-1.63449 0.0229582 0.003175)
(-1.63449 0.0234798 0.003175)
(-1.63449 0.0240536 0.003175)
(-1.63449 0.0246848 0.003175)
(-1.63449 0.0253791 0.003175)
(-1.63449 0.0261428 0.003175)
(-1.63449 0.0269829 0.003175)
(-1.63449 0.027907 0.003175)
(-1.63449 0.0289235 0.003175)
(-1.63449 0.0300417 0.003175)
(-1.63449 0.0312717 0.003175)
(-1.63449 0.0326247 0.003175)
(-1.63449 0.034113 0.003175)
(-1.63449 0.0357501 0.003175)
(-1.63449 0.0375509 0.003175)
(-1.63449 0.0395319 0.003175)
(-1.63449 0.0417109 0.003175)
(-1.63449 0.0441078 0.003175)
(-1.63449 0.0467444 0.003175)
(-1.63449 0.0496446 0.003175)
(-1.63449 0.0528349 0.003175)
(-1.63449 0.0563442 0.003175)
(-1.63449 0.0602045 0.003175)
(-1.63449 0.0644508 0.003175)
(-1.63449 0.0688992 0.003175)
(-1.63449 0.0731455 0.003175)
(-1.63449 0.0770058 0.003175)
(-1.63449 0.0805151 0.003175)
(-1.63449 0.0837054 0.003175)
(-1.63449 0.0866056 0.003175)
(-1.63449 0.0892422 0.003175)
(-1.63449 0.0916391 0.003175)
(-1.63449 0.0938181 0.003175)
(-1.63449 0.0957991 0.003175)
(-1.63449 0.0975999 0.003175)
(-1.63449 0.099237 0.003175)
(-1.63449 0.100725 0.003175)
(-1.63449 0.102078 0.003175)
(-1.63449 0.103308 0.003175)
(-1.63449 0.104426 0.003175)
(-1.63449 0.105443 0.003175)
(-1.63449 0.106367 0.003175)
(-1.63449 0.107207 0.003175)
(-1.63449 0.107971 0.003175)
(-1.63449 0.108665 0.003175)
(-1.63449 0.109296 0.003175)
(-1.63449 0.10987 0.003175)
(-1.63449 0.110392 0.003175)
(-1.63449 0.110866 0.003175)
(-1.63449 0.111297 0.003175)
(-1.63449 0.111689 0.003175)
(-1.63449 0.112045 0.003175)
(-1.63449 0.112369 0.003175)
(-1.63449 0.112664 0.003175)
(-1.63449 0.112931 0.003175)
(-1.63449 0.113175 0.003175)
(-1.63449 0.113396 0.003175)
(-1.63449 0.113597 0.003175)
(-1.63449 0.11378 0.003175)
(-1.63449 0.113946 0.003175)
(-1.63449 0.114097 0.003175)
(-1.63449 0.114235 0.003175)
(-1.63195 0.0191154 0.003175)
(-1.63195 0.0192528 0.003175)
(-1.63195 0.0194039 0.003175)
(-1.63195 0.0195701 0.003175)
(-1.63195 0.0197529 0.003175)
(-1.63195 0.019954 0.003175)
(-1.63195 0.0201753 0.003175)
(-1.63195 0.0204186 0.003175)
(-1.63195 0.0206863 0.003175)
(-1.63195 0.0209807 0.003175)
(-1.63195 0.0213046 0.003175)
(-1.63195 0.0216609 0.003175)
(-1.63195 0.0220528 0.003175)
(-1.63195 0.0224839 0.003175)
(-1.63195 0.0229582 0.003175)
(-1.63195 0.0234798 0.003175)
(-1.63195 0.0240536 0.003175)
(-1.63195 0.0246848 0.003175)
(-1.63195 0.0253791 0.003175)
(-1.63195 0.0261428 0.003175)
(-1.63195 0.0269829 0.003175)
(-1.63195 0.027907 0.003175)
(-1.63195 0.0289235 0.003175)
(-1.63195 0.0300417 0.003175)
(-1.63195 0.0312717 0.003175)
(-1.63195 0.0326247 0.003175)
(-1.63195 0.034113 0.003175)
(-1.63195 0.0357501 0.003175)
(-1.63195 0.0375509 0.003175)
(-1.63195 0.0395319 0.003175)
(-1.63195 0.0417109 0.003175)
(-1.63195 0.0441078 0.003175)
(-1.63195 0.0467444 0.003175)
(-1.63195 0.0496446 0.003175)
(-1.63195 0.0528349 0.003175)
(-1.63195 0.0563442 0.003175)
(-1.63195 0.0602045 0.003175)
(-1.63195 0.0644508 0.003175)
(-1.63195 0.0688992 0.003175)
(-1.63195 0.0731455 0.003175)
(-1.63195 0.0770058 0.003175)
(-1.63195 0.0805151 0.003175)
(-1.63195 0.0837054 0.003175)
(-1.63195 0.0866056 0.003175)
(-1.63195 0.0892422 0.003175)
(-1.63195 0.0916391 0.003175)
(-1.63195 0.0938181 0.003175)
(-1.63195 0.0957991 0.003175)
(-1.63195 0.0975999 0.003175)
(-1.63195 0.099237 0.003175)
(-1.63195 0.100725 0.003175)
(-1.63195 0.102078 0.003175)
(-1.63195 0.103308 0.003175)
(-1.63195 0.104426 0.003175)
(-1.63195 0.105443 0.003175)
(-1.63195 0.106367 0.003175)
(-1.63195 0.107207 0.003175)
(-1.63195 0.107971 0.003175)
(-1.63195 0.108665 0.003175)
(-1.63195 0.109296 0.003175)
(-1.63195 0.10987 0.003175)
(-1.63195 0.110392 0.003175)
(-1.63195 0.110866 0.003175)
(-1.63195 0.111297 0.003175)
(-1.63195 0.111689 0.003175)
(-1.63195 0.112045 0.003175)
(-1.63195 0.112369 0.003175)
(-1.63195 0.112664 0.003175)
(-1.63195 0.112931 0.003175)
(-1.63195 0.113175 0.003175)
(-1.63195 0.113396 0.003175)
(-1.63195 0.113597 0.003175)
(-1.63195 0.11378 0.003175)
(-1.63195 0.113946 0.003175)
(-1.63195 0.114097 0.003175)
(-1.63195 0.114235 0.003175)
(-1.62941 0.0191154 0.003175)
(-1.62941 0.0192528 0.003175)
(-1.62941 0.0194039 0.003175)
(-1.62941 0.0195701 0.003175)
(-1.62941 0.0197529 0.003175)
(-1.62941 0.019954 0.003175)
(-1.62941 0.0201753 0.003175)
(-1.62941 0.0204186 0.003175)
(-1.62941 0.0206863 0.003175)
(-1.62941 0.0209807 0.003175)
(-1.62941 0.0213046 0.003175)
(-1.62941 0.0216609 0.003175)
(-1.62941 0.0220528 0.003175)
(-1.62941 0.0224839 0.003175)
(-1.62941 0.0229582 0.003175)
(-1.62941 0.0234798 0.003175)
(-1.62941 0.0240536 0.003175)
(-1.62941 0.0246848 0.003175)
(-1.62941 0.0253791 0.003175)
(-1.62941 0.0261428 0.003175)
(-1.62941 0.0269829 0.003175)
(-1.62941 0.027907 0.003175)
(-1.62941 0.0289235 0.003175)
(-1.62941 0.0300417 0.003175)
(-1.62941 0.0312717 0.003175)
(-1.62941 0.0326247 0.003175)
(-1.62941 0.034113 0.003175)
(-1.62941 0.0357501 0.003175)
(-1.62941 0.0375509 0.003175)
(-1.62941 0.0395319 0.003175)
(-1.62941 0.0417109 0.003175)
(-1.62941 0.0441078 0.003175)
(-1.62941 0.0467444 0.003175)
(-1.62941 0.0496446 0.003175)
(-1.62941 0.0528349 0.003175)
(-1.62941 0.0563442 0.003175)
(-1.62941 0.0602045 0.003175)
(-1.62941 0.0644508 0.003175)
(-1.62941 0.0688992 0.003175)
(-1.62941 0.0731455 0.003175)
(-1.62941 0.0770058 0.003175)
(-1.62941 0.0805151 0.003175)
(-1.62941 0.0837054 0.003175)
(-1.62941 0.0866056 0.003175)
(-1.62941 0.0892422 0.003175)
(-1.62941 0.0916391 0.003175)
(-1.62941 0.0938181 0.003175)
(-1.62941 0.0957991 0.003175)
(-1.62941 0.0975999 0.003175)
(-1.62941 0.099237 0.003175)
(-1.62941 0.100725 0.003175)
(-1.62941 0.102078 0.003175)
(-1.62941 0.103308 0.003175)
(-1.62941 0.104426 0.003175)
(-1.62941 0.105443 0.003175)
(-1.62941 0.106367 0.003175)
(-1.62941 0.107207 0.003175)
(-1.62941 0.107971 0.003175)
(-1.62941 0.108665 0.003175)
(-1.62941 0.109296 0.003175)
(-1.62941 0.10987 0.003175)
(-1.62941 0.110392 0.003175)
(-1.62941 0.110866 0.003175)
(-1.62941 0.111297 0.003175)
(-1.62941 0.111689 0.003175)
(-1.62941 0.112045 0.003175)
(-1.62941 0.112369 0.003175)
(-1.62941 0.112664 0.003175)
(-1.62941 0.112931 0.003175)
(-1.62941 0.113175 0.003175)
(-1.62941 0.113396 0.003175)
(-1.62941 0.113597 0.003175)
(-1.62941 0.11378 0.003175)
(-1.62941 0.113946 0.003175)
(-1.62941 0.114097 0.003175)
(-1.62941 0.114235 0.003175)
(-1.62687 0.0191154 0.003175)
(-1.62687 0.0192528 0.003175)
(-1.62687 0.0194039 0.003175)
(-1.62687 0.0195701 0.003175)
(-1.62687 0.0197529 0.003175)
(-1.62687 0.019954 0.003175)
(-1.62687 0.0201753 0.003175)
(-1.62687 0.0204186 0.003175)
(-1.62687 0.0206863 0.003175)
(-1.62687 0.0209807 0.003175)
(-1.62687 0.0213046 0.003175)
(-1.62687 0.0216609 0.003175)
(-1.62687 0.0220528 0.003175)
(-1.62687 0.0224839 0.003175)
(-1.62687 0.0229582 0.003175)
(-1.62687 0.0234798 0.003175)
(-1.62687 0.0240536 0.003175)
(-1.62687 0.0246848 0.003175)
(-1.62687 0.0253791 0.003175)
(-1.62687 0.0261428 0.003175)
(-1.62687 0.0269829 0.003175)
(-1.62687 0.027907 0.003175)
(-1.62687 0.0289235 0.003175)
(-1.62687 0.0300417 0.003175)
(-1.62687 0.0312717 0.003175)
(-1.62687 0.0326247 0.003175)
(-1.62687 0.034113 0.003175)
(-1.62687 0.0357501 0.003175)
(-1.62687 0.0375509 0.003175)
(-1.62687 0.0395319 0.003175)
(-1.62687 0.0417109 0.003175)
(-1.62687 0.0441078 0.003175)
(-1.62687 0.0467444 0.003175)
(-1.62687 0.0496446 0.003175)
(-1.62687 0.0528349 0.003175)
(-1.62687 0.0563442 0.003175)
(-1.62687 0.0602045 0.003175)
(-1.62687 0.0644508 0.003175)
(-1.62687 0.0688992 0.003175)
(-1.62687 0.0731455 0.003175)
(-1.62687 0.0770058 0.003175)
(-1.62687 0.0805151 0.003175)
(-1.62687 0.0837054 0.003175)
(-1.62687 0.0866056 0.003175)
(-1.62687 0.0892422 0.003175)
(-1.62687 0.0916391 0.003175)
(-1.62687 0.0938181 0.003175)
(-1.62687 0.0957991 0.003175)
(-1.62687 0.0975999 0.003175)
(-1.62687 0.099237 0.003175)
(-1.62687 0.100725 0.003175)
(-1.62687 0.102078 0.003175)
(-1.62687 0.103308 0.003175)
(-1.62687 0.104426 0.003175)
(-1.62687 0.105443 0.003175)
(-1.62687 0.106367 0.003175)
(-1.62687 0.107207 0.003175)
(-1.62687 0.107971 0.003175)
(-1.62687 0.108665 0.003175)
(-1.62687 0.109296 0.003175)
(-1.62687 0.10987 0.003175)
(-1.62687 0.110392 0.003175)
(-1.62687 0.110866 0.003175)
(-1.62687 0.111297 0.003175)
(-1.62687 0.111689 0.003175)
(-1.62687 0.112045 0.003175)
(-1.62687 0.112369 0.003175)
(-1.62687 0.112664 0.003175)
(-1.62687 0.112931 0.003175)
(-1.62687 0.113175 0.003175)
(-1.62687 0.113396 0.003175)
(-1.62687 0.113597 0.003175)
(-1.62687 0.11378 0.003175)
(-1.62687 0.113946 0.003175)
(-1.62687 0.114097 0.003175)
(-1.62687 0.114235 0.003175)
(-1.62433 0.0191154 0.003175)
(-1.62433 0.0192528 0.003175)
(-1.62433 0.0194039 0.003175)
(-1.62433 0.0195701 0.003175)
(-1.62433 0.0197529 0.003175)
(-1.62433 0.019954 0.003175)
(-1.62433 0.0201753 0.003175)
(-1.62433 0.0204186 0.003175)
(-1.62433 0.0206863 0.003175)
(-1.62433 0.0209807 0.003175)
(-1.62433 0.0213046 0.003175)
(-1.62433 0.0216609 0.003175)
(-1.62433 0.0220528 0.003175)
(-1.62433 0.0224839 0.003175)
(-1.62433 0.0229582 0.003175)
(-1.62433 0.0234798 0.003175)
(-1.62433 0.0240536 0.003175)
(-1.62433 0.0246848 0.003175)
(-1.62433 0.0253791 0.003175)
(-1.62433 0.0261428 0.003175)
(-1.62433 0.0269829 0.003175)
(-1.62433 0.027907 0.003175)
(-1.62433 0.0289235 0.003175)
(-1.62433 0.0300417 0.003175)
(-1.62433 0.0312717 0.003175)
(-1.62433 0.0326247 0.003175)
(-1.62433 0.034113 0.003175)
(-1.62433 0.0357501 0.003175)
(-1.62433 0.0375509 0.003175)
(-1.62433 0.0395319 0.003175)
(-1.62433 0.0417109 0.003175)
(-1.62433 0.0441078 0.003175)
(-1.62433 0.0467444 0.003175)
(-1.62433 0.0496446 0.003175)
(-1.62433 0.0528349 0.003175)
(-1.62433 0.0563442 0.003175)
(-1.62433 0.0602045 0.003175)
(-1.62433 0.0644508 0.003175)
(-1.62433 0.0688992 0.003175)
(-1.62433 0.0731455 0.003175)
(-1.62433 0.0770058 0.003175)
(-1.62433 0.0805151 0.003175)
(-1.62433 0.0837054 0.003175)
(-1.62433 0.0866056 0.003175)
(-1.62433 0.0892422 0.003175)
(-1.62433 0.0916391 0.003175)
(-1.62433 0.0938181 0.003175)
(-1.62433 0.0957991 0.003175)
(-1.62433 0.0975999 0.003175)
(-1.62433 0.099237 0.003175)
(-1.62433 0.100725 0.003175)
(-1.62433 0.102078 0.003175)
(-1.62433 0.103308 0.003175)
(-1.62433 0.104426 0.003175)
(-1.62433 0.105443 0.003175)
(-1.62433 0.106367 0.003175)
(-1.62433 0.107207 0.003175)
(-1.62433 0.107971 0.003175)
(-1.62433 0.108665 0.003175)
(-1.62433 0.109296 0.003175)
(-1.62433 0.10987 0.003175)
(-1.62433 0.110392 0.003175)
(-1.62433 0.110866 0.003175)
(-1.62433 0.111297 0.003175)
(-1.62433 0.111689 0.003175)
(-1.62433 0.112045 0.003175)
(-1.62433 0.112369 0.003175)
(-1.62433 0.112664 0.003175)
(-1.62433 0.112931 0.003175)
(-1.62433 0.113175 0.003175)
(-1.62433 0.113396 0.003175)
(-1.62433 0.113597 0.003175)
(-1.62433 0.11378 0.003175)
(-1.62433 0.113946 0.003175)
(-1.62433 0.114097 0.003175)
(-1.62433 0.114235 0.003175)
(-1.62179 0.0191154 0.003175)
(-1.62179 0.0192528 0.003175)
(-1.62179 0.0194039 0.003175)
(-1.62179 0.0195701 0.003175)
(-1.62179 0.0197529 0.003175)
(-1.62179 0.019954 0.003175)
(-1.62179 0.0201753 0.003175)
(-1.62179 0.0204186 0.003175)
(-1.62179 0.0206863 0.003175)
(-1.62179 0.0209807 0.003175)
(-1.62179 0.0213046 0.003175)
(-1.62179 0.0216609 0.003175)
(-1.62179 0.0220528 0.003175)
(-1.62179 0.0224839 0.003175)
(-1.62179 0.0229582 0.003175)
(-1.62179 0.0234798 0.003175)
(-1.62179 0.0240536 0.003175)
(-1.62179 0.0246848 0.003175)
(-1.62179 0.0253791 0.003175)
(-1.62179 0.0261428 0.003175)
(-1.62179 0.0269829 0.003175)
(-1.62179 0.027907 0.003175)
(-1.62179 0.0289235 0.003175)
(-1.62179 0.0300417 0.003175)
(-1.62179 0.0312717 0.003175)
(-1.62179 0.0326247 0.003175)
(-1.62179 0.034113 0.003175)
(-1.62179 0.0357501 0.003175)
(-1.62179 0.0375509 0.003175)
(-1.62179 0.0395319 0.003175)
(-1.62179 0.0417109 0.003175)
(-1.62179 0.0441078 0.003175)
(-1.62179 0.0467444 0.003175)
(-1.62179 0.0496446 0.003175)
(-1.62179 0.0528349 0.003175)
(-1.62179 0.0563442 0.003175)
(-1.62179 0.0602045 0.003175)
(-1.62179 0.0644508 0.003175)
(-1.62179 0.0688992 0.003175)
(-1.62179 0.0731455 0.003175)
(-1.62179 0.0770058 0.003175)
(-1.62179 0.0805151 0.003175)
(-1.62179 0.0837054 0.003175)
(-1.62179 0.0866056 0.003175)
(-1.62179 0.0892422 0.003175)
(-1.62179 0.0916391 0.003175)
(-1.62179 0.0938181 0.003175)
(-1.62179 0.0957991 0.003175)
(-1.62179 0.0975999 0.003175)
(-1.62179 0.099237 0.003175)
(-1.62179 0.100725 0.003175)
(-1.62179 0.102078 0.003175)
(-1.62179 0.103308 0.003175)
(-1.62179 0.104426 0.003175)
(-1.62179 0.105443 0.003175)
(-1.62179 0.106367 0.003175)
(-1.62179 0.107207 0.003175)
(-1.62179 0.107971 0.003175)
(-1.62179 0.108665 0.003175)
(-1.62179 0.109296 0.003175)
(-1.62179 0.10987 0.003175)
(-1.62179 0.110392 0.003175)
(-1.62179 0.110866 0.003175)
(-1.62179 0.111297 0.003175)
(-1.62179 0.111689 0.003175)
(-1.62179 0.112045 0.003175)
(-1.62179 0.112369 0.003175)
(-1.62179 0.112664 0.003175)
(-1.62179 0.112931 0.003175)
(-1.62179 0.113175 0.003175)
(-1.62179 0.113396 0.003175)
(-1.62179 0.113597 0.003175)
(-1.62179 0.11378 0.003175)
(-1.62179 0.113946 0.003175)
(-1.62179 0.114097 0.003175)
(-1.62179 0.114235 0.003175)
(-1.61925 0.0191154 0.003175)
(-1.61925 0.0192528 0.003175)
(-1.61925 0.0194039 0.003175)
(-1.61925 0.0195701 0.003175)
(-1.61925 0.0197529 0.003175)
(-1.61925 0.019954 0.003175)
(-1.61925 0.0201753 0.003175)
(-1.61925 0.0204186 0.003175)
(-1.61925 0.0206863 0.003175)
(-1.61925 0.0209807 0.003175)
(-1.61925 0.0213046 0.003175)
(-1.61925 0.0216609 0.003175)
(-1.61925 0.0220528 0.003175)
(-1.61925 0.0224839 0.003175)
(-1.61925 0.0229582 0.003175)
(-1.61925 0.0234798 0.003175)
(-1.61925 0.0240536 0.003175)
(-1.61925 0.0246848 0.003175)
(-1.61925 0.0253791 0.003175)
(-1.61925 0.0261428 0.003175)
(-1.61925 0.0269829 0.003175)
(-1.61925 0.027907 0.003175)
(-1.61925 0.0289235 0.003175)
(-1.61925 0.0300417 0.003175)
(-1.61925 0.0312717 0.003175)
(-1.61925 0.0326247 0.003175)
(-1.61925 0.034113 0.003175)
(-1.61925 0.0357501 0.003175)
(-1.61925 0.0375509 0.003175)
(-1.61925 0.0395319 0.003175)
(-1.61925 0.0417109 0.003175)
(-1.61925 0.0441078 0.003175)
(-1.61925 0.0467444 0.003175)
(-1.61925 0.0496446 0.003175)
(-1.61925 0.0528349 0.003175)
(-1.61925 0.0563442 0.003175)
(-1.61925 0.0602045 0.003175)
(-1.61925 0.0644508 0.003175)
(-1.61925 0.0688992 0.003175)
(-1.61925 0.0731455 0.003175)
(-1.61925 0.0770058 0.003175)
(-1.61925 0.0805151 0.003175)
(-1.61925 0.0837054 0.003175)
(-1.61925 0.0866056 0.003175)
(-1.61925 0.0892422 0.003175)
(-1.61925 0.0916391 0.003175)
(-1.61925 0.0938181 0.003175)
(-1.61925 0.0957991 0.003175)
(-1.61925 0.0975999 0.003175)
(-1.61925 0.099237 0.003175)
(-1.61925 0.100725 0.003175)
(-1.61925 0.102078 0.003175)
(-1.61925 0.103308 0.003175)
(-1.61925 0.104426 0.003175)
(-1.61925 0.105443 0.003175)
(-1.61925 0.106367 0.003175)
(-1.61925 0.107207 0.003175)
(-1.61925 0.107971 0.003175)
(-1.61925 0.108665 0.003175)
(-1.61925 0.109296 0.003175)
(-1.61925 0.10987 0.003175)
(-1.61925 0.110392 0.003175)
(-1.61925 0.110866 0.003175)
(-1.61925 0.111297 0.003175)
(-1.61925 0.111689 0.003175)
(-1.61925 0.112045 0.003175)
(-1.61925 0.112369 0.003175)
(-1.61925 0.112664 0.003175)
(-1.61925 0.112931 0.003175)
(-1.61925 0.113175 0.003175)
(-1.61925 0.113396 0.003175)
(-1.61925 0.113597 0.003175)