/*--------------------------------*- C++ -*----------------------------------*\
| =========                 |                                                 |
| \\      /  F ield         | OpenFOAM: The Open Source CFD Toolbox           |
|  \\    /   O peration     | Version:  5.x                                   |
|   \\  /    A nd           | Web:      www.OpenFOAM.org                      |
|    \\/     M anipulation  |                                                 |
\*---------------------------------------------------------------------------*/
FoamFile
{
    version     2.0;
    format      ascii;
    class       volScalarField;
    location    "constant";
    object      cy;
}
// * * * * * * * * * * * * * * * * * * * * * * * * * * * * * * * * * * * * * //

dimensions      [0 1 0 0 0 0 0];

internalField   nonuniform List<scalar> 
130184
(
0.00641723
0.0065584
0.00671369
0.00688451
0.00707241
0.0072791
0.00750646
0.00775656
0.00803167
0.00833429
0.00866717
0.00903333
0.00943612
0.00987918
0.0103665
0.0109027
0.0114924
0.0121411
0.0128546
0.0136395
0.0145029
0.0154527
0.0164974
0.0176466
0.0189107
0.0203012
0.0218308
0.0235133
0.0253641
0.0274
0.0296394
0.0321028
0.0348125
0.0377932
0.041072
0.0446787
0.048646
0.05301
0.0578105
0.0628395
0.06764
0.072004
0.0759713
0.079578
0.0828568
0.0858375
0.0885472
0.0910106
0.09325
0.0952859
0.0971367
0.0988192
0.100349
0.101739
0.103003
0.104153
0.105197
0.106147
0.10701
0.107795
0.108509
0.109158
0.109747
0.110283
0.110771
0.111214
0.111617
0.111983
0.112316
0.112618
0.112893
0.113144
0.113371
0.113578
0.113765
0.113936
0.114092
0.114233
0.00641723
0.0065584
0.00671369
0.00688451
0.00707241
0.0072791
0.00750646
0.00775656
0.00803167
0.00833429
0.00866717
0.00903333
0.00943612
0.00987918
0.0103665
0.0109027
0.0114924
0.0121411
0.0128546
0.0136395
0.0145029
0.0154527
0.0164974
0.0176466
0.0189107
0.0203012
0.0218308
0.0235133
0.0253641
0.0274
0.0296394
0.0321028
0.0348125
0.0377932
0.041072
0.0446787
0.048646
0.05301
0.0578105
0.0628395
0.06764
0.072004
0.0759713
0.079578
0.0828568
0.0858375
0.0885472
0.0910106
0.09325
0.0952859
0.0971367
0.0988192
0.100349
0.101739
0.103003
0.104153
0.105197
0.106147
0.10701
0.107795
0.108509
0.109158
0.109747
0.110283
0.110771
0.111214
0.111617
0.111983
0.112316
0.112618
0.112893
0.113144
0.113371
0.113578
0.113765
0.113936
0.114092
0.114233
0.00641723
0.0065584
0.00671369
0.00688451
0.00707241
0.0072791
0.00750646
0.00775656
0.00803167
0.00833429
0.00866717
0.00903333
0.00943612
0.00987918
0.0103665
0.0109027
0.0114924
0.0121411
0.0128546
0.0136395
0.0145029
0.0154527
0.0164974
0.0176466
0.0189107
0.0203012
0.0218308
0.0235133
0.0253641
0.0274
0.0296394
0.0321028
0.0348125
0.0377932
0.041072
0.0446787
0.048646
0.05301
0.0578105
0.0628395
0.06764
0.072004
0.0759713
0.079578
0.0828568
0.0858375
0.0885472
0.0910106
0.09325
0.0952859
0.0971367
0.0988192
0.100349
0.101739
0.103003
0.104153
0.105197
0.106147
0.10701
0.107795
0.108509
0.109158
0.109747
0.110283
0.110771
0.111214
0.111617
0.111983
0.112316
0.112618
0.112893
0.113144
0.113371
0.113578
0.113765
0.113936
0.114092
0.114233
0.00641723
0.0065584
0.00671369
0.00688451
0.00707241
0.0072791
0.00750646
0.00775656
0.00803167
0.00833429
0.00866717
0.00903333
0.00943612
0.00987918
0.0103665
0.0109027
0.0114924
0.0121411
0.0128546
0.0136395
0.0145029
0.0154527
0.0164974
0.0176466
0.0189107
0.0203012
0.0218308
0.0235133
0.0253641
0.0274
0.0296394
0.0321028
0.0348125
0.0377932
0.041072
0.0446787
0.048646
0.05301
0.0578105
0.0628395
0.06764
0.072004
0.0759713
0.079578
0.0828568
0.0858375
0.0885472
0.0910106
0.09325
0.0952859
0.0971367
0.0988192
0.100349
0.101739
0.103003
0.104153
0.105197
0.106147
0.10701
0.107795
0.108509
0.109158
0.109747
0.110283
0.110771
0.111214
0.111617
0.111983
0.112316
0.112618
0.112893
0.113144
0.113371
0.113578
0.113765
0.113936
0.114092
0.114233
0.00641723
0.0065584
0.00671369
0.00688451
0.00707241
0.0072791
0.00750646
0.00775656
0.00803167
0.00833429
0.00866717
0.00903333
0.00943612
0.00987918
0.0103665
0.0109027
0.0114924
0.0121411
0.0128546
0.0136395
0.0145029
0.0154527
0.0164974
0.0176466
0.0189107
0.0203012
0.0218308
0.0235133
0.0253641
0.0274
0.0296394
0.0321028
0.0348125
0.0377932
0.041072
0.0446787
0.048646
0.05301
0.0578105
0.0628395
0.06764
0.072004
0.0759713
0.079578
0.0828568
0.0858375
0.0885472
0.0910106
0.09325
0.0952859
0.0971367
0.0988192
0.100349
0.101739
0.103003
0.104153
0.105197
0.106147
0.10701
0.107795
0.108509
0.109158
0.109747
0.110283
0.110771
0.111214
0.111617
0.111983
0.112316
0.112618
0.112893
0.113144
0.113371
0.113578
0.113765
0.113936
0.114092
0.114233
0.00641723
0.0065584
0.00671369
0.00688451
0.00707241
0.0072791
0.00750646
0.00775656
0.00803167
0.00833429
0.00866717
0.00903333
0.00943612
0.00987918
0.0103665
0.0109027
0.0114924
0.0121411
0.0128546
0.0136395
0.0145029
0.0154527
0.0164974
0.0176466
0.0189107
0.0203012
0.0218308
0.0235133
0.0253641
0.0274
0.0296394
0.0321028
0.0348125
0.0377932
0.041072
0.0446787
0.048646
0.05301
0.0578105
0.0628395
0.06764
0.072004
0.0759713
0.079578
0.0828568
0.0858375
0.0885472
0.0910106
0.09325
0.0952859
0.0971367
0.0988192
0.100349
0.101739
0.103003
0.104153
0.105197
0.106147
0.10701
0.107795
0.108509
0.109158
0.109747
0.110283
0.110771
0.111214
0.111617
0.111983
0.112316
0.112618
0.112893
0.113144
0.113371
0.113578
0.113765
0.113936
0.114092
0.114233
0.00641723
0.0065584
0.00671369
0.00688451
0.00707241
0.0072791
0.00750646
0.00775656
0.00803167
0.00833429
0.00866717
0.00903333
0.00943612
0.00987918
0.0103665
0.0109027
0.0114924
0.0121411
0.0128546
0.0136395
0.0145029
0.0154527
0.0164974
0.0176466
0.0189107
0.0203012
0.0218308
0.0235133
0.0253641
0.0274
0.0296394
0.0321028
0.0348125
0.0377932
0.041072
0.0446787
0.048646
0.05301
0.0578105
0.0628395
0.06764
0.072004
0.0759713
0.079578
0.0828568
0.0858375
0.0885472
0.0910106
0.09325
0.0952859
0.0971367
0.0988192
0.100349
0.101739
0.103003
0.104153
0.105197
0.106147
0.10701
0.107795
0.108509
0.109158
0.109747
0.110283
0.110771
0.111214
0.111617
0.111983
0.112316
0.112618
0.112893
0.113144
0.113371
0.113578
0.113765
0.113936
0.114092
0.114233
0.00641723
0.0065584
0.00671369
0.00688451
0.00707241
0.0072791
0.00750646
0.00775656
0.00803167
0.00833429
0.00866717
0.00903333
0.00943612
0.00987918
0.0103665
0.0109027
0.0114924
0.0121411
0.0128546
0.0136395
0.0145029
0.0154527
0.0164974
0.0176466
0.0189107
0.0203012
0.0218308
0.0235133
0.0253641
0.0274
0.0296394
0.0321028
0.0348125
0.0377932
0.041072
0.0446787
0.048646
0.05301
0.0578105
0.0628395
0.06764
0.072004
0.0759713
0.079578
0.0828568
0.0858375
0.0885472
0.0910106
0.09325
0.0952859
0.0971367
0.0988192
0.100349
0.101739
0.103003
0.104153
0.105197
0.106147
0.10701
0.107795
0.108509
0.109158
0.109747
0.110283
0.110771
0.111214
0.111617
0.111983
0.112316
0.112618
0.112893
0.113144
0.113371
0.113578
0.113765
0.113936
0.114092
0.114233
0.00641723
0.0065584
0.00671369
0.00688451
0.00707241
0.0072791
0.00750646
0.00775656
0.00803167
0.00833429
0.00866717
0.00903333
0.00943612
0.00987918
0.0103665
0.0109027
0.0114924
0.0121411
0.0128546
0.0136395
0.0145029
0.0154527
0.0164974
0.0176466
0.0189107
0.0203012
0.0218308
0.0235133
0.0253641
0.0274
0.0296394
0.0321028
0.0348125
0.0377932
0.041072
0.0446787
0.048646
0.05301
0.0578105
0.0628395
0.06764
0.072004
0.0759713
0.079578
0.0828568
0.0858375
0.0885472
0.0910106
0.09325
0.0952859
0.0971367
0.0988192
0.100349
0.101739
0.103003
0.104153
0.105197
0.106147
0.10701
0.107795
0.108509
0.109158
0.109747
0.110283
0.110771
0.111214
0.111617
0.111983
0.112316
0.112618
0.112893
0.113144
0.113371
0.113578
0.113765
0.113936
0.114092
0.114233
0.00641723
0.0065584
0.00671369
0.00688451
0.00707241
0.0072791
0.00750646
0.00775656
0.00803167
0.00833429
0.00866717
0.00903333
0.00943612
0.00987918
0.0103665
0.0109027
0.0114924
0.0121411
0.0128546
0.0136395
0.0145029
0.0154527
0.0164974
0.0176466
0.0189107
0.0203012
0.0218308
0.0235133
0.0253641
0.0274
0.0296394
0.0321028
0.0348125
0.0377932
0.041072
0.0446787
0.048646
0.05301
0.0578105
0.0628395
0.06764
0.072004
0.0759713
0.079578
0.0828568
0.0858375
0.0885472
0.0910106
0.09325
0.0952859
0.0971367
0.0988192
0.100349
0.101739
0.103003
0.104153
0.105197
0.106147
0.10701
0.107795
0.108509
0.109158
0.109747
0.110283
0.110771
0.111214
0.111617
0.111983
0.112316
0.112618
0.112893
0.113144
0.113371
0.113578
0.113765
0.113936
0.114092
0.114233
0.00641723
0.0065584
0.00671369
0.00688451
0.00707241
0.0072791
0.00750646
0.00775656
0.00803167
0.00833429
0.00866717
0.00903333
0.00943612
0.00987918
0.0103665
0.0109027
0.0114924
0.0121411
0.0128546
0.0136395
0.0145029
0.0154527
0.0164974
0.0176466
0.0189107
0.0203012
0.0218308
0.0235133
0.0253641
0.0274
0.0296394
0.0321028
0.0348125
0.0377932
0.041072
0.0446787
0.048646
0.05301
0.0578105
0.0628395
0.06764
0.072004
0.0759713
0.079578
0.0828568
0.0858375
0.0885472
0.0910106
0.09325
0.0952859
0.0971367
0.0988192
0.100349
0.101739
0.103003
0.104153
0.105197
0.106147
0.10701
0.107795
0.108509
0.109158
0.109747
0.110283
0.110771
0.111214
0.111617
0.111983
0.112316
0.112618
0.112893
0.113144
0.113371
0.113578
0.113765
0.113936
0.114092
0.114233
0.00641723
0.0065584
0.00671369
0.00688451
0.00707241
0.0072791
0.00750646
0.00775656
0.00803167
0.00833429
0.00866717
0.00903333
0.00943612
0.00987918
0.0103665
0.0109027
0.0114924
0.0121411
0.0128546
0.0136395
0.0145029
0.0154527
0.0164974
0.0176466
0.0189107
0.0203012
0.0218308
0.0235133
0.0253641
0.0274
0.0296394
0.0321028
0.0348125
0.0377932
0.041072
0.0446787
0.048646
0.05301
0.0578105
0.0628395
0.06764
0.072004
0.0759713
0.079578
0.0828568
0.0858375
0.0885472
0.0910106
0.09325
0.0952859
0.0971367
0.0988192
0.100349
0.101739
0.103003
0.104153
0.105197
0.106147
0.10701
0.107795
0.108509
0.109158
0.109747
0.110283
0.110771
0.111214
0.111617
0.111983
0.112316
0.112618
0.112893
0.113144
0.113371
0.113578
0.113765
0.113936
0.114092
0.114233
0.00641723
0.0065584
0.00671369
0.00688451
0.00707241
0.0072791
0.00750646
0.00775656
0.00803167
0.00833429
0.00866717
0.00903333
0.00943612
0.00987918
0.0103665
0.0109027
0.0114924
0.0121411
0.0128546
0.0136395
0.0145029
0.0154527
0.0164974
0.0176466
0.0189107
0.0203012
0.0218308
0.0235133
0.0253641
0.0274
0.0296394
0.0321028
0.0348125
0.0377932
0.041072
0.0446787
0.048646
0.05301
0.0578105
0.0628395
0.06764
0.072004
0.0759713
0.079578
0.0828568
0.0858375
0.0885472
0.0910106
0.09325
0.0952859
0.0971367
0.0988192
0.100349
0.101739
0.103003
0.104153
0.105197
0.106147
0.10701
0.107795
0.108509
0.109158
0.109747
0.110283
0.110771
0.111214
0.111617
0.111983
0.112316
0.112618
0.112893
0.113144
0.113371
0.113578
0.113765
0.113936
0.114092
0.114233
0.00641723
0.0065584
0.00671369
0.00688451
0.00707241
0.0072791
0.00750646
0.00775656
0.00803167
0.00833429
0.00866717
0.00903333
0.00943612
0.00987918
0.0103665
0.0109027
0.0114924
0.0121411
0.0128546
0.0136395
0.0145029
0.0154527
0.0164974
0.0176466
0.0189107
0.0203012
0.0218308
0.0235133
0.0253641
0.0274
0.0296394
0.0321028
0.0348125
0.0377932
0.041072
0.0446787
0.048646
0.05301
0.0578105
0.0628395
0.06764
0.072004
0.0759713
0.079578
0.0828568
0.0858375
0.0885472
0.0910106
0.09325
0.0952859
0.0971367
0.0988192
0.100349
0.101739
0.103003
0.104153
0.105197
0.106147
0.10701
0.107795
0.108509
0.109158
0.109747
0.110283
0.110771
0.111214
0.111617
0.111983
0.112316
0.112618
0.112893
0.113144
0.113371
0.113578
0.113765
0.113936
0.114092
0.114233
0.00641723
0.0065584
0.00671369
0.00688451
0.00707241
0.0072791
0.00750646
0.00775656
0.00803167
0.00833429
0.00866717
0.00903333
0.00943612
0.00987918
0.0103665
0.0109027
0.0114924
0.0121411
0.0128546
0.0136395
0.0145029
0.0154527
0.0164974
0.0176466
0.0189107
0.0203012
0.0218308
0.0235133
0.0253641
0.0274
0.0296394
0.0321028
0.0348125
0.0377932
0.041072
0.0446787
0.048646
0.05301
0.0578105
0.0628395
0.06764
0.072004
0.0759713
0.079578
0.0828568
0.0858375
0.0885472
0.0910106
0.09325
0.0952859
0.0971367
0.0988192
0.100349
0.101739
0.103003
0.104153
0.105197
0.106147
0.10701
0.107795
0.108509
0.109158
0.109747
0.110283
0.110771
0.111214
0.111617
0.111983
0.112316
0.112618
0.112893
0.113144
0.113371
0.113578
0.113765
0.113936
0.114092
0.114233
0.00641723
0.0065584
0.00671369
0.00688451
0.00707241
0.0072791
0.00750646
0.00775656
0.00803167
0.00833429
0.00866717
0.00903333
0.00943612
0.00987918
0.0103665
0.0109027
0.0114924
0.0121411
0.0128546
0.0136395
0.0145029
0.0154527
0.0164974
0.0176466
0.0189107
0.0203012
0.0218308
0.0235133
0.0253641
0.0274
0.0296394
0.0321028
0.0348125
0.0377932
0.041072
0.0446787
0.048646
0.05301
0.0578105
0.0628395
0.06764
0.072004
0.0759713
0.079578
0.0828568
0.0858375
0.0885472
0.0910106
0.09325
0.0952859
0.0971367
0.0988192
0.100349
0.101739
0.103003
0.104153
0.105197
0.106147
0.10701
0.107795
0.108509
0.109158
0.109747
0.110283
0.110771
0.111214
0.111617
0.111983
0.112316
0.112618
0.112893
0.113144
0.113371
0.113578
0.113765
0.113936
0.114092
0.114233
0.00641723
0.0065584
0.00671369
0.00688451
0.00707241
0.0072791
0.00750646
0.00775656
0.00803167
0.00833429
0.00866717
0.00903333
0.00943612
0.00987918
0.0103665
0.0109027
0.0114924
0.0121411
0.0128546
0.0136395
0.0145029
0.0154527
0.0164974
0.0176466
0.0189107
0.0203012
0.0218308
0.0235133
0.0253641
0.0274
0.0296394
0.0321028
0.0348125
0.0377932
0.041072
0.0446787
0.048646
0.05301
0.0578105
0.0628395
0.06764
0.072004
0.0759713
0.079578
0.0828568
0.0858375
0.0885472
0.0910106
0.09325
0.0952859
0.0971367
0.0988192
0.100349
0.101739
0.103003
0.104153
0.105197
0.106147
0.10701
0.107795
0.108509
0.109158
0.109747
0.110283
0.110771
0.111214
0.111617
0.111983
0.112316
0.112618
0.112893
0.113144
0.113371
0.113578
0.113765
0.113936
0.114092
0.114233
0.00641723
0.0065584
0.00671369
0.00688451
0.00707241
0.0072791
0.00750646
0.00775656
0.00803167
0.00833429
0.00866717
0.00903333
0.00943612
0.00987918
0.0103665
0.0109027
0.0114924
0.0121411
0.0128546
0.0136395
0.0145029
0.0154527
0.0164974
0.0176466
0.0189107
0.0203012
0.0218308
0.0235133
0.0253641
0.0274
0.0296394
0.0321028
0.0348125
0.0377932
0.041072
0.0446787
0.048646
0.05301
0.0578105
0.0628395
0.06764
0.072004
0.0759713
0.079578
0.0828568
0.0858375
0.0885472
0.0910106
0.09325
0.0952859
0.0971367
0.0988192
0.100349
0.101739
0.103003
0.104153
0.105197
0.106147
0.10701
0.107795
0.108509
0.109158
0.109747
0.110283
0.110771
0.111214
0.111617
0.111983
0.112316
0.112618
0.112893
0.113144
0.113371
0.113578
0.113765
0.113936
0.114092
0.114233
0.00641723
0.0065584
0.00671369
0.00688451
0.00707241
0.0072791
0.00750646
0.00775656
0.00803167
0.00833429
0.00866717
0.00903333
0.00943612
0.00987918
0.0103665
0.0109027
0.0114924
0.0121411
0.0128546
0.0136395
0.0145029
0.0154527
0.0164974
0.0176466
0.0189107
0.0203012
0.0218308
0.0235133
0.0253641
0.0274
0.0296394
0.0321028
0.0348125
0.0377932
0.041072
0.0446787
0.048646
0.05301
0.0578105
0.0628395
0.06764
0.072004
0.0759713
0.079578
0.0828568
0.0858375
0.0885472
0.0910106
0.09325
0.0952859
0.0971367
0.0988192
0.100349
0.101739
0.103003
0.104153
0.105197
0.106147
0.10701
0.107795
0.108509
0.109158
0.109747
0.110283
0.110771
0.111214
0.111617
0.111983
0.112316
0.112618
0.112893
0.113144
0.113371
0.113578
0.113765
0.113936
0.114092
0.114233
0.00641723
0.0065584
0.00671369
0.00688451
0.00707241
0.0072791
0.00750646
0.00775656
0.00803167
0.00833429
0.00866717
0.00903333
0.00943612
0.00987918
0.0103665
0.0109027
0.0114924
0.0121411
0.0128546
0.0136395
0.0145029
0.0154527
0.0164974
0.0176466
0.0189107
0.0203012
0.0218308
0.0235133
0.0253641
0.0274
0.0296394
0.0321028
0.0348125
0.0377932
0.041072
0.0446787
0.048646
0.05301
0.0578105
0.0628395
0.06764
0.072004
0.0759713
0.079578
0.0828568
0.0858375
0.0885472
0.0910106
0.09325
0.0952859
0.0971367
0.0988192
0.100349
0.101739
0.103003
0.104153
0.105197
0.106147
0.10701
0.107795
0.108509
0.109158
0.109747
0.110283
0.110771
0.111214
0.111617
0.111983
0.112316
0.112618
0.112893
0.113144
0.113371
0.113578
0.113765
0.113936
0.114092
0.114233
0.00641723
0.0065584
0.00671369
0.00688451
0.00707241
0.0072791
0.00750646
0.00775656
0.00803167
0.00833429
0.00866717
0.00903333
0.00943612
0.00987918
0.0103665
0.0109027
0.0114924
0.0121411
0.0128546
0.0136395
0.0145029
0.0154527
0.0164974
0.0176466
0.0189107
0.0203012
0.0218308
0.0235133
0.0253641
0.0274
0.0296394
0.0321028
0.0348125
0.0377932
0.041072
0.0446787
0.048646
0.05301
0.0578105
0.0628395
0.06764
0.072004
0.0759713
0.079578
0.0828568
0.0858375
0.0885472
0.0910106
0.09325
0.0952859
0.0971367
0.0988192
0.100349
0.101739
0.103003
0.104153
0.105197
0.106147
0.10701
0.107795
0.108509
0.109158
0.109747
0.110283
0.110771
0.111214
0.111617
0.111983
0.112316
0.112618
0.112893
0.113144
0.113371
0.113578
0.113765
0.113936
0.114092
0.114233
0.00641723
0.0065584
0.00671369
0.00688451
0.00707241
0.0072791
0.00750646
0.00775656
0.00803167
0.00833429
0.00866717
0.00903333
0.00943612
0.00987918
0.0103665
0.0109027
0.0114924
0.0121411
0.0128546
0.0136395
0.0145029
0.0154527
0.0164974
0.0176466
0.0189107
0.0203012
0.0218308
0.0235133
0.0253641
0.0274
0.0296394
0.0321028
0.0348125
0.0377932
0.041072
0.0446787
0.048646
0.05301
0.0578105
0.0628395
0.06764
0.072004
0.0759713
0.079578
0.0828568
0.0858375
0.0885472
0.0910106
0.09325
0.0952859
0.0971367
0.0988192
0.100349
0.101739
0.103003
0.104153
0.105197
0.106147
0.10701
0.107795
0.108509
0.109158
0.109747
0.110283
0.110771
0.111214
0.111617
0.111983
0.112316
0.112618
0.112893
0.113144
0.113371
0.113578
0.113765
0.113936
0.114092
0.114233
0.00641723
0.0065584
0.00671369
0.00688451
0.00707241
0.0072791
0.00750646
0.00775656
0.00803167
0.00833429
0.00866717
0.00903333
0.00943612
0.00987918
0.0103665
0.0109027
0.0114924
0.0121411
0.0128546
0.0136395
0.0145029
0.0154527
0.0164974
0.0176466
0.0189107
0.0203012
0.0218308
0.0235133
0.0253641
0.0274
0.0296394
0.0321028
0.0348125
0.0377932
0.041072
0.0446787
0.048646
0.05301
0.0578105
0.0628395
0.06764
0.072004
0.0759713
0.079578
0.0828568
0.0858375
0.0885472
0.0910106
0.09325
0.0952859
0.0971367
0.0988192
0.100349
0.101739
0.103003
0.104153
0.105197
0.106147
0.10701
0.107795
0.108509
0.109158
0.109747
0.110283
0.110771
0.111214
0.111617
0.111983
0.112316
0.112618
0.112893
0.113144
0.113371
0.113578
0.113765
0.113936
0.114092
0.114233
0.00641723
0.0065584
0.00671369
0.00688451
0.00707241
0.0072791
0.00750646
0.00775656
0.00803167
0.00833429
0.00866717
0.00903333
0.00943612
0.00987918
0.0103665
0.0109027
0.0114924
0.0121411
0.0128546
0.0136395
0.0145029
0.0154527
0.0164974
0.0176466
0.0189107
0.0203012
0.0218308
0.0235133
0.0253641
0.0274
0.0296394
0.0321028
0.0348125
0.0377932
0.041072
0.0446787
0.048646
0.05301
0.0578105
0.0628395
0.06764
0.072004
0.0759713
0.079578
0.0828568
0.0858375
0.0885472
0.0910106
0.09325
0.0952859
0.0971367
0.0988192
0.100349
0.101739
0.103003
0.104153
0.105197
0.106147
0.10701
0.107795
0.108509
0.109158
0.109747
0.110283
0.110771
0.111214
0.111617
0.111983
0.112316
0.112618
0.112893
0.113144
0.113371
0.113578
0.113765
0.113936
0.114092
0.114233
0.00641723
0.0065584
0.00671369
0.00688451
0.00707241
0.0072791
0.00750646
0.00775656
0.00803167
0.00833429
0.00866717
0.00903333
0.00943612
0.00987918
0.0103665
0.0109027
0.0114924
0.0121411
0.0128546
0.0136395
0.0145029
0.0154527
0.0164974
0.0176466
0.0189107
0.0203012
0.0218308
0.0235133
0.0253641
0.0274
0.0296394
0.0321028
0.0348125
0.0377932
0.041072
0.0446787
0.048646
0.05301
0.0578105
0.0628395
0.06764
0.072004
0.0759713
0.079578
0.0828568
0.0858375
0.0885472
0.0910106
0.09325
0.0952859
0.0971367
0.0988192
0.100349
0.101739
0.103003
0.104153
0.105197
0.106147
0.10701
0.107795
0.108509
0.109158
0.109747
0.110283
0.110771
0.111214
0.111617
0.111983
0.112316
0.112618
0.112893
0.113144
0.113371
0.113578
0.113765
0.113936
0.114092
0.114233
0.00641723
0.0065584
0.00671369
0.00688451
0.00707241
0.0072791
0.00750646
0.00775656
0.00803167
0.00833429
0.00866717
0.00903333
0.00943612
0.00987918
0.0103665
0.0109027
0.0114924
0.0121411
0.0128546
0.0136395
0.0145029
0.0154527
0.0164974
0.0176466
0.0189107
0.0203012
0.0218308
0.0235133
0.0253641
0.0274
0.0296394
0.0321028
0.0348125
0.0377932
0.041072
0.0446787
0.048646
0.05301
0.0578105
0.0628395
0.06764
0.072004
0.0759713
0.079578
0.0828568
0.0858375
0.0885472
0.0910106
0.09325
0.0952859
0.0971367
0.0988192
0.100349
0.101739
0.103003
0.104153
0.105197
0.106147
0.10701
0.107795
0.108509
0.109158
0.109747
0.110283
0.110771
0.111214
0.111617
0.111983
0.112316
0.112618
0.112893
0.113144
0.113371
0.113578
0.113765
0.113936
0.114092
0.114233
0.00641723
0.0065584
0.00671369
0.00688451
0.00707241
0.0072791
0.00750646
0.00775656
0.00803167
0.00833429
0.00866717
0.00903333
0.00943612
0.00987918
0.0103665
0.0109027
0.0114924
0.0121411
0.0128546
0.0136395
0.0145029
0.0154527
0.0164974
0.0176466
0.0189107
0.0203012
0.0218308
0.0235133
0.0253641
0.0274
0.0296394
0.0321028
0.0348125
0.0377932
0.041072
0.0446787
0.048646
0.05301
0.0578105
0.0628395
0.06764
0.072004
0.0759713
0.079578
0.0828568
0.0858375
0.0885472
0.0910106
0.09325
0.0952859
0.0971367
0.0988192
0.100349
0.101739
0.103003
0.104153
0.105197
0.106147
0.10701
0.107795
0.108509
0.109158
0.109747
0.110283
0.110771
0.111214
0.111617
0.111983
0.112316
0.112618
0.112893
0.113144
0.113371
0.113578
0.113765
0.113936
0.114092
0.114233
0.00641723
0.0065584
0.00671369
0.00688451
0.00707241
0.0072791
0.00750646
0.00775656
0.00803167
0.00833429
0.00866717
0.00903333
0.00943612
0.00987918
0.0103665
0.0109027
0.0114924
0.0121411
0.0128546
0.0136395
0.0145029
0.0154527
0.0164974
0.0176466
0.0189107
0.0203012
0.0218308
0.0235133
0.0253641
0.0274
0.0296394
0.0321028
0.0348125
0.0377932
0.041072
0.0446787
0.048646
0.05301
0.0578105
0.0628395
0.06764
0.072004
0.0759713
0.079578
0.0828568
0.0858375
0.0885472
0.0910106
0.09325
0.0952859
0.0971367
0.0988192
0.100349
0.101739
0.103003
0.104153
0.105197
0.106147
0.10701
0.107795
0.108509
0.109158
0.109747
0.110283
0.110771
0.111214
0.111617
0.111983
0.112316
0.112618
0.112893
0.113144
0.113371
0.113578
0.113765
0.113936
0.114092
0.114233
0.00641723
0.0065584
0.00671369
0.00688451
0.00707241
0.0072791
0.00750646
0.00775656
0.00803167
0.00833429
0.00866717
0.00903333
0.00943612
0.00987918
0.0103665
0.0109027
0.0114924
0.0121411
0.0128546
0.0136395
0.0145029
0.0154527
0.0164974
0.0176466
0.0189107
0.0203012
0.0218308
0.0235133
0.0253641
0.0274
0.0296394
0.0321028
0.0348125
0.0377932
0.041072
0.0446787
0.048646
0.05301
0.0578105
0.0628395
0.06764
0.072004
0.0759713
0.079578
0.0828568
0.0858375
0.0885472
0.0910106
0.09325
0.0952859
0.0971367
0.0988192
0.100349
0.101739
0.103003
0.104153
0.105197
0.106147
0.10701
0.107795
0.108509
0.109158
0.109747
0.110283
0.110771
0.111214
0.111617
0.111983
0.112316
0.112618
0.112893
0.113144
0.113371
0.113578
0.113765
0.113936
0.114092
0.114233
0.00641723
0.0065584
0.00671369
0.00688451
0.00707241
0.0072791
0.00750646
0.00775656
0.00803167
0.00833429
0.00866717
0.00903333
0.00943612
0.00987918
0.0103665
0.0109027
0.0114924
0.0121411
0.0128546
0.0136395
0.0145029
0.0154527
0.0164974
0.0176466
0.0189107
0.0203012
0.0218308
0.0235133
0.0253641
0.0274
0.0296394
0.0321028
0.0348125
0.0377932
0.041072
0.0446787
0.048646
0.05301
0.0578105
0.0628395
0.06764
0.072004
0.0759713
0.079578
0.0828568
0.0858375
0.0885472
0.0910106
0.09325
0.0952859
0.0971367
0.0988192
0.100349
0.101739
0.103003
0.104153
0.105197
0.106147
0.10701
0.107795
0.108509
0.109158
0.109747
0.110283
0.110771
0.111214
0.111617
0.111983
0.112316
0.112618
0.112893
0.113144
0.113371
0.113578
0.113765
0.113936
0.114092
0.114233
0.00641723
0.0065584
0.00671369
0.00688451
0.00707241
0.0072791
0.00750646
0.00775656
0.00803167
0.00833429
0.00866717
0.00903333
0.00943612
0.00987918
0.0103665
0.0109027
0.0114924
0.0121411
0.0128546
0.0136395
0.0145029
0.0154527
0.0164974
0.0176466
0.0189107
0.0203012
0.0218308
0.0235133
0.0253641
0.0274
0.0296394
0.0321028
0.0348125
0.0377932
0.041072
0.0446787
0.048646
0.05301
0.0578105
0.0628395
0.06764
0.072004
0.0759713
0.079578
0.0828568
0.0858375
0.0885472
0.0910106
0.09325
0.0952859
0.0971367
0.0988192
0.100349
0.101739
0.103003
0.104153
0.105197
0.106147
0.10701
0.107795
0.108509
0.109158
0.109747
0.110283
0.110771
0.111214
0.111617
0.111983
0.112316
0.112618
0.112893
0.113144
0.113371
0.113578
0.113765
0.113936
0.114092
0.114233
0.00641723
0.0065584
0.00671369
0.00688451
0.00707241
0.0072791
0.00750646
0.00775656
0.00803167
0.00833429
0.00866717
0.00903333
0.00943612
0.00987918
0.0103665
0.0109027
0.0114924
0.0121411
0.0128546
0.0136395
0.0145029
0.0154527
0.0164974
0.0176466
0.0189107
0.0203012
0.0218308
0.0235133
0.0253641
0.0274
0.0296394
0.0321028
0.0348125
0.0377932
0.041072
0.0446787
0.048646
0.05301
0.0578105
0.0628395
0.06764
0.072004
0.0759713
0.079578
0.0828568
0.0858375
0.0885472
0.0910106
0.09325
0.0952859
0.0971367
0.0988192
0.100349
0.101739
0.103003
0.104153
0.105197
0.106147
0.10701
0.107795
0.108509
0.109158
0.109747
0.110283
0.110771
0.111214
0.111617
0.111983
0.112316
0.112618
0.112893
0.113144
0.113371
0.113578
0.113765
0.113936
0.114092
0.114233
0.00641723
0.0065584
0.00671369
0.00688451
0.00707241
0.0072791
0.00750646
0.00775656
0.00803167
0.00833429
0.00866717
0.00903333
0.00943612
0.00987918
0.0103665
0.0109027
0.0114924
0.0121411
0.0128546
0.0136395
0.0145029
0.0154527
0.0164974
0.0176466
0.0189107
0.0203012
0.0218308
0.0235133
0.0253641
0.0274
0.0296394
0.0321028
0.0348125
0.0377932
0.041072
0.0446787
0.048646
0.05301
0.0578105
0.0628395
0.06764
0.072004
0.0759713
0.079578
0.0828568
0.0858375
0.0885472
0.0910106
0.09325
0.0952859
0.0971367
0.0988192
0.100349
0.101739
0.103003
0.104153
0.105197
0.106147
0.10701
0.107795
0.108509
0.109158
0.109747
0.110283
0.110771
0.111214
0.111617
0.111983
0.112316
0.112618
0.112893
0.113144
0.113371
0.113578
0.113765
0.113936
0.114092
0.114233
0.00641723
0.0065584
0.00671369
0.00688451
0.00707241
0.0072791
0.00750646
0.00775656
0.00803167
0.00833429
0.00866717
0.00903333
0.00943612
0.00987918
0.0103665
0.0109027
0.0114924
0.0121411
0.0128546
0.0136395
0.0145029
0.0154527
0.0164974
0.0176466
0.0189107
0.0203012
0.0218308
0.0235133
0.0253641
0.0274
0.0296394
0.0321028
0.0348125
0.0377932
0.041072
0.0446787
0.048646
0.05301
0.0578105
0.0628395
0.06764
0.072004
0.0759713
0.079578
0.0828568
0.0858375
0.0885472
0.0910106
0.09325
0.0952859
0.0971367
0.0988192
0.100349
0.101739
0.103003
0.104153
0.105197
0.106147
0.10701
0.107795
0.108509
0.109158
0.109747
0.110283
0.110771
0.111214
0.111617
0.111983
0.112316
0.112618
0.112893
0.113144
0.113371
0.113578
0.113765
0.113936
0.114092
0.114233
0.00641723
0.0065584
0.00671369
0.00688451
0.00707241
0.0072791
0.00750646
0.00775656
0.00803167
0.00833429
0.00866717
0.00903333
0.00943612
0.00987918
0.0103665
0.0109027
0.0114924
0.0121411
0.0128546
0.0136395
0.0145029
0.0154527
0.0164974
0.0176466
0.0189107
0.0203012
0.0218308
0.0235133
0.0253641
0.0274
0.0296394
0.0321028
0.0348125
0.0377932
0.041072
0.0446787
0.048646
0.05301
0.0578105
0.0628395
0.06764
0.072004
0.0759713
0.079578
0.0828568
0.0858375
0.0885472
0.0910106
0.09325
0.0952859
0.0971367
0.0988192
0.100349
0.101739
0.103003
0.104153
0.105197
0.106147
0.10701
0.107795
0.108509
0.109158
0.109747
0.110283
0.110771
0.111214
0.111617
0.111983
0.112316
0.112618
0.112893
0.113144
0.113371
0.113578
0.113765
0.113936
0.114092
0.114233
0.00641723
0.0065584
0.00671369
0.00688451
0.00707241
0.0072791
0.00750646
0.00775656
0.00803167
0.00833429
0.00866717
0.00903333
0.00943612
0.00987918
0.0103665
0.0109027
0.0114924
0.0121411
0.0128546
0.0136395
0.0145029
0.0154527
0.0164974
0.0176466
0.0189107
0.0203012
0.0218308
0.0235133
0.0253641
0.0274
0.0296394
0.0321028
0.0348125
0.0377932
0.041072
0.0446787
0.048646
0.05301
0.0578105
0.0628395
0.06764
0.072004
0.0759713
0.079578
0.0828568
0.0858375
0.0885472
0.0910106
0.09325
0.0952859
0.0971367
0.0988192
0.100349
0.101739
0.103003
0.104153
0.105197
0.106147
0.10701
0.107795
0.108509
0.109158
0.109747
0.110283
0.110771
0.111214
0.111617
0.111983
0.112316
0.112618
0.112893
0.113144
0.113371
0.113578
0.113765
0.113936
0.114092
0.114233
0.00641723
0.0065584
0.00671369
0.00688451
0.00707241
0.0072791
0.00750646
0.00775656
0.00803167
0.00833429
0.00866717
0.00903333
0.00943612
0.00987918
0.0103665
0.0109027
0.0114924
0.0121411
0.0128546
0.0136395
0.0145029
0.0154527
0.0164974
0.0176466
0.0189107
0.0203012
0.0218308
0.0235133
0.0253641
0.0274
0.0296394
0.0321028
0.0348125
0.0377932
0.041072
0.0446787
0.048646
0.05301
0.0578105
0.0628395
0.06764
0.072004
0.0759713
0.079578
0.0828568
0.0858375
0.0885472
0.0910106
0.09325
0.0952859
0.0971367
0.0988192
0.100349
0.101739
0.103003
0.104153
0.105197
0.106147
0.10701
0.107795
0.108509
0.109158
0.109747
0.110283
0.110771
0.111214
0.111617
0.111983
0.112316
0.112618
0.112893
0.113144
0.113371
0.113578
0.113765
0.113936
0.114092
0.114233
0.00641723
0.0065584
0.00671369
0.00688451
0.00707241
0.0072791
0.00750646
0.00775656
0.00803167
0.00833429
0.00866717
0.00903333
0.00943612
0.00987918
0.0103665
0.0109027
0.0114924
0.0121411
0.0128546
0.0136395
0.0145029
0.0154527
0.0164974
0.0176466
0.0189107
0.0203012
0.0218308
0.0235133
0.0253641
0.0274
0.0296394
0.0321028
0.0348125
0.0377932
0.041072
0.0446787
0.048646
0.05301
0.0578105
0.0628395
0.06764
0.072004
0.0759713
0.079578
0.0828568
0.0858375
0.0885472
0.0910106
0.09325
0.0952859
0.0971367
0.0988192
0.100349
0.101739
0.103003
0.104153
0.105197
0.106147
0.10701
0.107795
0.108509
0.109158
0.109747
0.110283
0.110771
0.111214
0.111617
0.111983
0.112316
0.112618
0.112893
0.113144
0.113371
0.113578
0.113765
0.113936
0.114092
0.114233
0.00641723
0.0065584
0.00671369
0.00688451
0.00707241
0.0072791
0.00750646
0.00775656
0.00803167
0.00833429
0.00866717
0.00903333
0.00943612
0.00987918
0.0103665
0.0109027
0.0114924
0.0121411
0.0128546
0.0136395
0.0145029
0.0154527
0.0164974
0.0176466
0.0189107
0.0203012
0.0218308
0.0235133
0.0253641
0.0274
0.0296394
0.0321028
0.0348125
0.0377932
0.041072
0.0446787
0.048646
0.05301
0.0578105
0.0628395
0.06764
0.072004
0.0759713
0.079578
0.0828568
0.0858375
0.0885472
0.0910106
0.09325
0.0952859
0.0971367
0.0988192
0.100349
0.101739
0.103003
0.104153