/*--------------------------------*- C++ -*----------------------------------*\
| =========                 |                                                 |
| \\      /  F ield         | OpenFOAM: The Open Source CFD Toolbox           |
|  \\    /   O peration     | Version:  5.x                                   |
|   \\  /    A nd           | Web:      www.OpenFOAM.org                      |
|    \\/     M anipulation  |                                                 |
\*---------------------------------------------------------------------------*/
FoamFile
{
    version     2.0;
    format      ascii;
    class       volScalarField;
    location    "constant";
    object      cy;
}
// * * * * * * * * * * * * * * * * * * * * * * * * * * * * * * * * * * * * * //

dimensions      [0 1 0 0 0 0 0];

internalField   nonuniform List<scalar> 
134648
(
0.00959025
0.00972727
0.00987799
0.0100438
0.0102262
0.0104268
0.0106475
0.0108902
0.0111572
0.0114509
0.011774
0.0121294
0.0125203
0.0129504
0.0134234
0.0139438
0.0145161
0.0151457
0.0158383
0.0166001
0.0174381
0.01836
0.0193739
0.0204893
0.0217163
0.0230659
0.0245505
0.0261835
0.0279799
0.0299558
0.0321294
0.0345204
0.0371504
0.0400434
0.0432258
0.0467263
0.050577
0.0548127
0.0594719
0.0643531
0.0690123
0.073248
0.0770987
0.0805992
0.0837816
0.0866746
0.0893046
0.0916956
0.0938692
0.0958451
0.0976415
0.0992745
0.100759
0.102109
0.103336
0.104451
0.105465
0.106387
0.107225
0.107987
0.108679
0.109309
0.109881
0.110402
0.110875
0.111305
0.111696
0.112051
0.112374
0.112668
0.112935
0.113178
0.113398
0.113599
0.113781
0.113947
0.114098
0.114235
0.00959025
0.00972727
0.00987799
0.0100438
0.0102262
0.0104268
0.0106475
0.0108902
0.0111572
0.0114509
0.011774
0.0121294
0.0125203
0.0129504
0.0134234
0.0139438
0.0145161
0.0151457
0.0158383
0.0166001
0.0174381
0.01836
0.0193739
0.0204893
0.0217163
0.0230659
0.0245505
0.0261835
0.0279799
0.0299558
0.0321294
0.0345204
0.0371504
0.0400434
0.0432258
0.0467263
0.050577
0.0548127
0.0594719
0.0643531
0.0690123
0.073248
0.0770987
0.0805992
0.0837816
0.0866746
0.0893046
0.0916956
0.0938692
0.0958451
0.0976415
0.0992745
0.100759
0.102109
0.103336
0.104451
0.105465
0.106387
0.107225
0.107987
0.108679
0.109309
0.109881
0.110402
0.110875
0.111305
0.111696
0.112051
0.112374
0.112668
0.112935
0.113178
0.113398
0.113599
0.113781
0.113947
0.114098
0.114235
0.00959025
0.00972727
0.00987799
0.0100438
0.0102262
0.0104268
0.0106475
0.0108902
0.0111572
0.0114509
0.011774
0.0121294
0.0125203
0.0129504
0.0134234
0.0139438
0.0145161
0.0151457
0.0158383
0.0166001
0.0174381
0.01836
0.0193739
0.0204893
0.0217163
0.0230659
0.0245505
0.0261835
0.0279799
0.0299558
0.0321294
0.0345204
0.0371504
0.0400434
0.0432258
0.0467263
0.050577
0.0548127
0.0594719
0.0643531
0.0690123
0.073248
0.0770987
0.0805992
0.0837816
0.0866746
0.0893046
0.0916956
0.0938692
0.0958451
0.0976415
0.0992745
0.100759
0.102109
0.103336
0.104451
0.105465
0.106387
0.107225
0.107987
0.108679
0.109309
0.109881
0.110402
0.110875
0.111305
0.111696
0.112051
0.112374
0.112668
0.112935
0.113178
0.113398
0.113599
0.113781
0.113947
0.114098
0.114235
0.00959025
0.00972727
0.00987799
0.0100438
0.0102262
0.0104268
0.0106475
0.0108902
0.0111572
0.0114509
0.011774
0.0121294
0.0125203
0.0129504
0.0134234
0.0139438
0.0145161
0.0151457
0.0158383
0.0166001
0.0174381
0.01836
0.0193739
0.0204893
0.0217163
0.0230659
0.0245505
0.0261835
0.0279799
0.0299558
0.0321294
0.0345204
0.0371504
0.0400434
0.0432258
0.0467263
0.050577
0.0548127
0.0594719
0.0643531
0.0690123
0.073248
0.0770987
0.0805992
0.0837816
0.0866746
0.0893046
0.0916956
0.0938692
0.0958451
0.0976415
0.0992745
0.100759
0.102109
0.103336
0.104451
0.105465
0.106387
0.107225
0.107987
0.108679
0.109309
0.109881
0.110402
0.110875
0.111305
0.111696
0.112051
0.112374
0.112668
0.112935
0.113178
0.113398
0.113599
0.113781
0.113947
0.114098
0.114235
0.00959025
0.00972727
0.00987799
0.0100438
0.0102262
0.0104268
0.0106475
0.0108902
0.0111572
0.0114509
0.011774
0.0121294
0.0125203
0.0129504
0.0134234
0.0139438
0.0145161
0.0151457
0.0158383
0.0166001
0.0174381
0.01836
0.0193739
0.0204893
0.0217163
0.0230659
0.0245505
0.0261835
0.0279799
0.0299558
0.0321294
0.0345204
0.0371504
0.0400434
0.0432258
0.0467263
0.050577
0.0548127
0.0594719
0.0643531
0.0690123
0.073248
0.0770987
0.0805992
0.0837816
0.0866746
0.0893046
0.0916956
0.0938692
0.0958451
0.0976415
0.0992745
0.100759
0.102109
0.103336
0.104451
0.105465
0.106387
0.107225
0.107987
0.108679
0.109309
0.109881
0.110402
0.110875
0.111305
0.111696
0.112051
0.112374
0.112668
0.112935
0.113178
0.113398
0.113599
0.113781
0.113947
0.114098
0.114235
0.00959025
0.00972727
0.00987799
0.0100438
0.0102262
0.0104268
0.0106475
0.0108902
0.0111572
0.0114509
0.011774
0.0121294
0.0125203
0.0129504
0.0134234
0.0139438
0.0145161
0.0151457
0.0158383
0.0166001
0.0174381
0.01836
0.0193739
0.0204893
0.0217163
0.0230659
0.0245505
0.0261835
0.0279799
0.0299558
0.0321294
0.0345204
0.0371504
0.0400434
0.0432258
0.0467263
0.050577
0.0548127
0.0594719
0.0643531
0.0690123
0.073248
0.0770987
0.0805992
0.0837816
0.0866746
0.0893046
0.0916956
0.0938692
0.0958451
0.0976415
0.0992745
0.100759
0.102109
0.103336
0.104451
0.105465
0.106387
0.107225
0.107987
0.108679
0.109309
0.109881
0.110402
0.110875
0.111305
0.111696
0.112051
0.112374
0.112668
0.112935
0.113178
0.113398
0.113599
0.113781
0.113947
0.114098
0.114235
0.00959025
0.00972727
0.00987799
0.0100438
0.0102262
0.0104268
0.0106475
0.0108902
0.0111572
0.0114509
0.011774
0.0121294
0.0125203
0.0129504
0.0134234
0.0139438
0.0145161
0.0151457
0.0158383
0.0166001
0.0174381
0.01836
0.0193739
0.0204893
0.0217163
0.0230659
0.0245505
0.0261835
0.0279799
0.0299558
0.0321294
0.0345204
0.0371504
0.0400434
0.0432258
0.0467263
0.050577
0.0548127
0.0594719
0.0643531
0.0690123
0.073248
0.0770987
0.0805992
0.0837816
0.0866746
0.0893046
0.0916956
0.0938692
0.0958451
0.0976415
0.0992745
0.100759
0.102109
0.103336
0.104451
0.105465
0.106387
0.107225
0.107987
0.108679
0.109309
0.109881
0.110402
0.110875
0.111305
0.111696
0.112051
0.112374
0.112668
0.112935
0.113178
0.113398
0.113599
0.113781
0.113947
0.114098
0.114235
0.00959025
0.00972727
0.00987799
0.0100438
0.0102262
0.0104268
0.0106475
0.0108902
0.0111572
0.0114509
0.011774
0.0121294
0.0125203
0.0129504
0.0134234
0.0139438
0.0145161
0.0151457
0.0158383
0.0166001
0.0174381
0.01836
0.0193739
0.0204893
0.0217163
0.0230659
0.0245505
0.0261835
0.0279799
0.0299558
0.0321294
0.0345204
0.0371504
0.0400434
0.0432258
0.0467263
0.050577
0.0548127
0.0594719
0.0643531
0.0690123
0.073248
0.0770987
0.0805992
0.0837816
0.0866746
0.0893046
0.0916956
0.0938692
0.0958451
0.0976415
0.0992745
0.100759
0.102109
0.103336
0.104451
0.105465
0.106387
0.107225
0.107987
0.108679
0.109309
0.109881
0.110402
0.110875
0.111305
0.111696
0.112051
0.112374
0.112668
0.112935
0.113178
0.113398
0.113599
0.113781
0.113947
0.114098
0.114235
0.00959025
0.00972727
0.00987799
0.0100438
0.0102262
0.0104268
0.0106475
0.0108902
0.0111572
0.0114509
0.011774
0.0121294
0.0125203
0.0129504
0.0134234
0.0139438
0.0145161
0.0151457
0.0158383
0.0166001
0.0174381
0.01836
0.0193739
0.0204893
0.0217163
0.0230659
0.0245505
0.0261835
0.0279799
0.0299558
0.0321294
0.0345204
0.0371504
0.0400434
0.0432258
0.0467263
0.050577
0.0548127
0.0594719
0.0643531
0.0690123
0.073248
0.0770987
0.0805992
0.0837816
0.0866746
0.0893046
0.0916956
0.0938692
0.0958451
0.0976415
0.0992745
0.100759
0.102109
0.103336
0.104451
0.105465
0.106387
0.107225
0.107987
0.108679
0.109309
0.109881
0.110402
0.110875
0.111305
0.111696
0.112051
0.112374
0.112668
0.112935
0.113178
0.113398
0.113599
0.113781
0.113947
0.114098
0.114235
0.00959025
0.00972727
0.00987799
0.0100438
0.0102262
0.0104268
0.0106475
0.0108902
0.0111572
0.0114509
0.011774
0.0121294
0.0125203
0.0129504
0.0134234
0.0139438
0.0145161
0.0151457
0.0158383
0.0166001
0.0174381
0.01836
0.0193739
0.0204893
0.0217163
0.0230659
0.0245505
0.0261835
0.0279799
0.0299558
0.0321294
0.0345204
0.0371504
0.0400434
0.0432258
0.0467263
0.050577
0.0548127
0.0594719
0.0643531
0.0690123
0.073248
0.0770987
0.0805992
0.0837816
0.0866746
0.0893046
0.0916956
0.0938692
0.0958451
0.0976415
0.0992745
0.100759
0.102109
0.103336
0.104451
0.105465
0.106387
0.107225
0.107987
0.108679
0.109309
0.109881
0.110402
0.110875
0.111305
0.111696
0.112051
0.112374
0.112668
0.112935
0.113178
0.113398
0.113599
0.113781
0.113947
0.114098
0.114235
0.00959025
0.00972727
0.00987799
0.0100438
0.0102262
0.0104268
0.0106475
0.0108902
0.0111572
0.0114509
0.011774
0.0121294
0.0125203
0.0129504
0.0134234
0.0139438
0.0145161
0.0151457
0.0158383
0.0166001
0.0174381
0.01836
0.0193739
0.0204893
0.0217163
0.0230659
0.0245505
0.0261835
0.0279799
0.0299558
0.0321294
0.0345204
0.0371504
0.0400434
0.0432258
0.0467263
0.050577
0.0548127
0.0594719
0.0643531
0.0690123
0.073248
0.0770987
0.0805992
0.0837816
0.0866746
0.0893046
0.0916956
0.0938692
0.0958451
0.0976415
0.0992745
0.100759
0.102109
0.103336
0.104451
0.105465
0.106387
0.107225
0.107987
0.108679
0.109309
0.109881
0.110402
0.110875
0.111305
0.111696
0.112051
0.112374
0.112668
0.112935
0.113178
0.113398
0.113599
0.113781
0.113947
0.114098
0.114235
0.00959025
0.00972727
0.00987799
0.0100438
0.0102262
0.0104268
0.0106475
0.0108902
0.0111572
0.0114509
0.011774
0.0121294
0.0125203
0.0129504
0.0134234
0.0139438
0.0145161
0.0151457
0.0158383
0.0166001
0.0174381
0.01836
0.0193739
0.0204893
0.0217163
0.0230659
0.0245505
0.0261835
0.0279799
0.0299558
0.0321294
0.0345204
0.0371504
0.0400434
0.0432258
0.0467263
0.050577
0.0548127
0.0594719
0.0643531
0.0690123
0.073248
0.0770987
0.0805992
0.0837816
0.0866746
0.0893046
0.0916956
0.0938692
0.0958451
0.0976415
0.0992745
0.100759
0.102109
0.103336
0.104451
0.105465
0.106387
0.107225
0.107987
0.108679
0.109309
0.109881
0.110402
0.110875
0.111305
0.111696
0.112051
0.112374
0.112668
0.112935
0.113178
0.113398
0.113599
0.113781
0.113947
0.114098
0.114235
0.00959025
0.00972727
0.00987799
0.0100438
0.0102262
0.0104268
0.0106475
0.0108902
0.0111572
0.0114509
0.011774
0.0121294
0.0125203
0.0129504
0.0134234
0.0139438
0.0145161
0.0151457
0.0158383
0.0166001
0.0174381
0.01836
0.0193739
0.0204893
0.0217163
0.0230659
0.0245505
0.0261835
0.0279799
0.0299558
0.0321294
0.0345204
0.0371504
0.0400434
0.0432258
0.0467263
0.050577
0.0548127
0.0594719
0.0643531
0.0690123
0.073248
0.0770987
0.0805992
0.0837816
0.0866746
0.0893046
0.0916956
0.0938692
0.0958451
0.0976415
0.0992745
0.100759
0.102109
0.103336
0.104451
0.105465
0.106387
0.107225
0.107987
0.108679
0.109309
0.109881
0.110402
0.110875
0.111305
0.111696
0.112051
0.112374
0.112668
0.112935
0.113178
0.113398
0.113599
0.113781
0.113947
0.114098
0.114235
0.00959025
0.00972727
0.00987799
0.0100438
0.0102262
0.0104268
0.0106475
0.0108902
0.0111572
0.0114509
0.011774
0.0121294
0.0125203
0.0129504
0.0134234
0.0139438
0.0145161
0.0151457
0.0158383
0.0166001
0.0174381
0.01836
0.0193739
0.0204893
0.0217163
0.0230659
0.0245505
0.0261835
0.0279799
0.0299558
0.0321294
0.0345204
0.0371504
0.0400434
0.0432258
0.0467263
0.050577
0.0548127
0.0594719
0.0643531
0.0690123
0.073248
0.0770987
0.0805992
0.0837816
0.0866746
0.0893046
0.0916956
0.0938692
0.0958451
0.0976415
0.0992745
0.100759
0.102109
0.103336
0.104451
0.105465
0.106387
0.107225
0.107987
0.108679
0.109309
0.109881
0.110402
0.110875
0.111305
0.111696
0.112051
0.112374
0.112668
0.112935
0.113178
0.113398
0.113599
0.113781
0.113947
0.114098
0.114235
0.00959025
0.00972727
0.00987799
0.0100438
0.0102262
0.0104268
0.0106475
0.0108902
0.0111572
0.0114509
0.011774
0.0121294
0.0125203
0.0129504
0.0134234
0.0139438
0.0145161
0.0151457
0.0158383
0.0166001
0.0174381
0.01836
0.0193739
0.0204893
0.0217163
0.0230659
0.0245505
0.0261835
0.0279799
0.0299558
0.0321294
0.0345204
0.0371504
0.0400434
0.0432258
0.0467263
0.050577
0.0548127
0.0594719
0.0643531
0.0690123
0.073248
0.0770987
0.0805992
0.0837816
0.0866746
0.0893046
0.0916956
0.0938692
0.0958451
0.0976415
0.0992745
0.100759
0.102109
0.103336
0.104451
0.105465
0.106387
0.107225
0.107987
0.108679
0.109309
0.109881
0.110402
0.110875
0.111305
0.111696
0.112051
0.112374
0.112668
0.112935
0.113178
0.113398
0.113599
0.113781
0.113947
0.114098
0.114235
0.00959025
0.00972727
0.00987799
0.0100438
0.0102262
0.0104268
0.0106475
0.0108902
0.0111572
0.0114509
0.011774
0.0121294
0.0125203
0.0129504
0.0134234
0.0139438
0.0145161
0.0151457
0.0158383
0.0166001
0.0174381
0.01836
0.0193739
0.0204893
0.0217163
0.0230659
0.0245505
0.0261835
0.0279799
0.0299558
0.0321294
0.0345204
0.0371504
0.0400434
0.0432258
0.0467263
0.050577
0.0548127
0.0594719
0.0643531
0.0690123
0.073248
0.0770987
0.0805992
0.0837816
0.0866746
0.0893046
0.0916956
0.0938692
0.0958451
0.0976415
0.0992745
0.100759
0.102109
0.103336
0.104451
0.105465
0.106387
0.107225
0.107987
0.108679
0.109309
0.109881
0.110402
0.110875
0.111305
0.111696
0.112051
0.112374
0.112668
0.112935
0.113178
0.113398
0.113599
0.113781
0.113947
0.114098
0.114235
0.00959025
0.00972727
0.00987799
0.0100438
0.0102262
0.0104268
0.0106475
0.0108902
0.0111572
0.0114509
0.011774
0.0121294
0.0125203
0.0129504
0.0134234
0.0139438
0.0145161
0.0151457
0.0158383
0.0166001
0.0174381
0.01836
0.0193739
0.0204893
0.0217163
0.0230659
0.0245505
0.0261835
0.0279799
0.0299558
0.0321294
0.0345204
0.0371504
0.0400434
0.0432258
0.0467263
0.050577
0.0548127
0.0594719
0.0643531
0.0690123
0.073248
0.0770987
0.0805992
0.0837816
0.0866746
0.0893046
0.0916956
0.0938692
0.0958451
0.0976415
0.0992745
0.100759
0.102109
0.103336
0.104451
0.105465
0.106387
0.107225
0.107987
0.108679
0.109309
0.109881
0.110402
0.110875
0.111305
0.111696
0.112051
0.112374
0.112668
0.112935
0.113178
0.113398
0.113599
0.113781
0.113947
0.114098
0.114235
0.00959025
0.00972727
0.00987799
0.0100438
0.0102262
0.0104268
0.0106475
0.0108902
0.0111572
0.0114509
0.011774
0.0121294
0.0125203
0.0129504
0.0134234
0.0139438
0.0145161
0.0151457
0.0158383
0.0166001
0.0174381
0.01836
0.0193739
0.0204893
0.0217163
0.0230659
0.0245505
0.0261835
0.0279799
0.0299558
0.0321294
0.0345204
0.0371504
0.0400434
0.0432258
0.0467263
0.050577
0.0548127
0.0594719
0.0643531
0.0690123
0.073248
0.0770987
0.0805992
0.0837816
0.0866746
0.0893046
0.0916956
0.0938692
0.0958451
0.0976415
0.0992745
0.100759
0.102109
0.103336
0.104451
0.105465
0.106387
0.107225
0.107987
0.108679
0.109309
0.109881
0.110402
0.110875
0.111305
0.111696
0.112051
0.112374
0.112668
0.112935
0.113178
0.113398
0.113599
0.113781
0.113947
0.114098
0.114235
0.00959025
0.00972727
0.00987799
0.0100438
0.0102262
0.0104268
0.0106475
0.0108902
0.0111572
0.0114509
0.011774
0.0121294
0.0125203
0.0129504
0.0134234
0.0139438
0.0145161
0.0151457
0.0158383
0.0166001
0.0174381
0.01836
0.0193739
0.0204893
0.0217163
0.0230659
0.0245505
0.0261835
0.0279799
0.0299558
0.0321294
0.0345204
0.0371504
0.0400434
0.0432258
0.0467263
0.050577
0.0548127
0.0594719
0.0643531
0.0690123
0.073248
0.0770987
0.0805992
0.0837816
0.0866746
0.0893046
0.0916956
0.0938692
0.0958451
0.0976415
0.0992745
0.100759
0.102109
0.103336
0.104451
0.105465
0.106387
0.107225
0.107987
0.108679
0.109309
0.109881
0.110402
0.110875
0.111305
0.111696
0.112051
0.112374
0.112668
0.112935
0.113178
0.113398
0.113599
0.113781
0.113947
0.114098
0.114235
0.00959025
0.00972727
0.00987799
0.0100438
0.0102262
0.0104268
0.0106475
0.0108902
0.0111572
0.0114509
0.011774
0.0121294
0.0125203
0.0129504
0.0134234
0.0139438
0.0145161
0.0151457
0.0158383
0.0166001
0.0174381
0.01836
0.0193739
0.0204893
0.0217163
0.0230659
0.0245505
0.0261835
0.0279799
0.0299558
0.0321294
0.0345204
0.0371504
0.0400434
0.0432258
0.0467263
0.050577
0.0548127
0.0594719
0.0643531
0.0690123
0.073248
0.0770987
0.0805992
0.0837816
0.0866746
0.0893046
0.0916956
0.0938692
0.0958451
0.0976415
0.0992745
0.100759
0.102109
0.103336
0.104451
0.105465
0.106387
0.107225
0.107987
0.108679
0.109309
0.109881
0.110402
0.110875
0.111305
0.111696
0.112051
0.112374
0.112668
0.112935
0.113178
0.113398
0.113599
0.113781
0.113947
0.114098
0.114235
0.00959025
0.00972727
0.00987799
0.0100438
0.0102262
0.0104268
0.0106475
0.0108902
0.0111572
0.0114509
0.011774
0.0121294
0.0125203
0.0129504
0.0134234
0.0139438
0.0145161
0.0151457
0.0158383
0.0166001
0.0174381
0.01836
0.0193739
0.0204893
0.0217163
0.0230659
0.0245505
0.0261835
0.0279799
0.0299558
0.0321294
0.0345204
0.0371504
0.0400434
0.0432258
0.0467263
0.050577
0.0548127
0.0594719
0.0643531
0.0690123
0.073248
0.0770987
0.0805992
0.0837816
0.0866746
0.0893046
0.0916956
0.0938692
0.0958451
0.0976415
0.0992745
0.100759
0.102109
0.103336
0.104451
0.105465
0.106387
0.107225
0.107987
0.108679
0.109309
0.109881
0.110402
0.110875
0.111305
0.111696
0.112051
0.112374
0.112668
0.112935
0.113178
0.113398
0.113599
0.113781
0.113947
0.114098
0.114235
0.00959025
0.00972727
0.00987799
0.0100438
0.0102262
0.0104268
0.0106475
0.0108902
0.0111572
0.0114509
0.011774
0.0121294
0.0125203
0.0129504
0.0134234
0.0139438
0.0145161
0.0151457
0.0158383
0.0166001
0.0174381
0.01836
0.0193739
0.0204893
0.0217163
0.0230659
0.0245505
0.0261835
0.0279799
0.0299558
0.0321294
0.0345204
0.0371504
0.0400434
0.0432258
0.0467263
0.050577
0.0548127
0.0594719
0.0643531
0.0690123
0.073248
0.0770987
0.0805992
0.0837816
0.0866746
0.0893046
0.0916956
0.0938692
0.0958451
0.0976415
0.0992745
0.100759
0.102109
0.103336
0.104451
0.105465
0.106387
0.107225
0.107987
0.108679
0.109309
0.109881
0.110402
0.110875
0.111305
0.111696
0.112051
0.112374
0.112668
0.112935
0.113178
0.113398
0.113599
0.113781
0.113947
0.114098
0.114235
0.00959025
0.00972727
0.00987799
0.0100438
0.0102262
0.0104268
0.0106475
0.0108902
0.0111572
0.0114509
0.011774
0.0121294
0.0125203
0.0129504
0.0134234
0.0139438
0.0145161
0.0151457
0.0158383
0.0166001
0.0174381
0.01836
0.0193739
0.0204893
0.0217163
0.0230659
0.0245505
0.0261835
0.0279799
0.0299558
0.0321294
0.0345204
0.0371504
0.0400434
0.0432258
0.0467263
0.050577
0.0548127
0.0594719
0.0643531
0.0690123
0.073248
0.0770987
0.0805992
0.0837816
0.0866746
0.0893046
0.0916956
0.0938692
0.0958451
0.0976415
0.0992745
0.100759
0.102109
0.103336
0.104451
0.105465
0.106387
0.107225
0.107987
0.108679
0.109309
0.109881
0.110402
0.110875
0.111305
0.111696
0.112051
0.112374
0.112668
0.112935
0.113178
0.113398
0.113599
0.113781
0.113947
0.114098
0.114235
0.00959025
0.00972727
0.00987799
0.0100438
0.0102262
0.0104268
0.0106475
0.0108902
0.0111572
0.0114509
0.011774
0.0121294
0.0125203
0.0129504
0.0134234
0.0139438
0.0145161
0.0151457
0.0158383
0.0166001
0.0174381
0.01836
0.0193739
0.0204893
0.0217163
0.0230659
0.0245505
0.0261835
0.0279799
0.0299558
0.0321294
0.0345204
0.0371504
0.0400434
0.0432258
0.0467263
0.050577
0.0548127
0.0594719
0.0643531
0.0690123
0.073248
0.0770987
0.0805992
0.0837816
0.0866746
0.0893046
0.0916956
0.0938692
0.0958451
0.0976415
0.0992745
0.100759
0.102109
0.103336
0.104451
0.105465
0.106387
0.107225
0.107987
0.108679
0.109309
0.109881
0.110402
0.110875
0.111305
0.111696
0.112051
0.112374
0.112668
0.112935
0.113178
0.113398
0.113599
0.113781
0.113947
0.114098
0.114235
0.00959025
0.00972727
0.00987799
0.0100438
0.0102262
0.0104268
0.0106475
0.0108902
0.0111572
0.0114509
0.011774
0.0121294
0.0125203
0.0129504
0.0134234
0.0139438
0.0145161
0.0151457
0.0158383
0.0166001
0.0174381
0.01836
0.0193739
0.0204893
0.0217163
0.0230659
0.0245505
0.0261835
0.0279799
0.0299558
0.0321294
0.0345204
0.0371504
0.0400434
0.0432258
0.0467263
0.050577
0.0548127
0.0594719
0.0643531
0.0690123
0.073248
0.0770987
0.0805992
0.0837816
0.0866746
0.0893046
0.0916956
0.0938692
0.0958451
0.0976415
0.0992745
0.100759
0.102109
0.103336
0.104451
0.105465
0.106387
0.107225
0.107987
0.108679
0.109309
0.109881
0.110402
0.110875
0.111305
0.111696
0.112051
0.112374
0.112668
0.112935
0.113178
0.113398
0.113599
0.113781
0.113947
0.114098
0.114235
0.00959025
0.00972727
0.00987799
0.0100438
0.0102262
0.0104268
0.0106475
0.0108902
0.0111572
0.0114509
0.011774
0.0121294
0.0125203
0.0129504
0.0134234
0.0139438
0.0145161
0.0151457
0.0158383
0.0166001
0.0174381
0.01836
0.0193739
0.0204893
0.0217163
0.0230659
0.0245505
0.0261835
0.0279799
0.0299558
0.0321294
0.0345204
0.0371504
0.0400434
0.0432258
0.0467263
0.050577
0.0548127
0.0594719
0.0643531
0.0690123
0.073248
0.0770987
0.0805992
0.0837816
0.0866746
0.0893046
0.0916956
0.0938692
0.0958451
0.0976415
0.0992745
0.100759
0.102109
0.103336
0.104451
0.105465
0.106387
0.107225
0.107987
0.108679
0.109309
0.109881
0.110402
0.110875
0.111305
0.111696
0.112051
0.112374
0.112668
0.112935
0.113178
0.113398
0.113599
0.113781
0.113947
0.114098
0.114235
0.00959025
0.00972727
0.00987799
0.0100438
0.0102262
0.0104268
0.0106475
0.0108902
0.0111572
0.0114509
0.011774
0.0121294
0.0125203
0.0129504
0.0134234
0.0139438
0.0145161
0.0151457
0.0158383
0.0166001
0.0174381
0.01836
0.0193739
0.0204893
0.0217163
0.0230659
0.0245505
0.0261835
0.0279799
0.0299558
0.0321294
0.0345204
0.0371504
0.0400434
0.0432258
0.0467263
0.050577
0.0548127
0.0594719
0.0643531
0.0690123
0.073248
0.0770987
0.0805992
0.0837816
0.0866746
0.0893046
0.0916956
0.0938692
0.0958451
0.0976415
0.0992745
0.100759
0.102109
0.103336
0.104451
0.105465
0.106387
0.107225
0.107987
0.108679
0.109309
0.109881
0.110402
0.110875
0.111305
0.111696
0.112051
0.112374
0.112668
0.112935
0.113178
0.113398
0.113599
0.113781
0.113947
0.114098
0.114235
0.00959025
0.00972727
0.00987799
0.0100438
0.0102262
0.0104268
0.0106475
0.0108902
0.0111572
0.0114509
0.011774
0.0121294
0.0125203
0.0129504
0.0134234
0.0139438
0.0145161
0.0151457
0.0158383
0.0166001
0.0174381
0.01836
0.0193739
0.0204893
0.0217163
0.0230659
0.0245505
0.0261835
0.0279799
0.0299558
0.0321294
0.0345204
0.0371504
0.0400434
0.0432258
0.0467263
0.050577
0.0548127
0.0594719
0.0643531
0.0690123
0.073248
0.0770987
0.0805992
0.0837816
0.0866746
0.0893046
0.0916956
0.0938692
0.0958451
0.0976415
0.0992745
0.100759
0.102109
0.103336
0.104451
0.105465
0.106387
0.107225
0.107987
0.108679
0.109309
0.109881
0.110402
0.110875
0.111305
0.111696
0.112051
0.112374
0.112668
0.112935
0.113178
0.113398
0.113599
0.113781
0.113947
0.114098
0.114235
0.00959025
0.00972727
0.00987799
0.0100438
0.0102262
0.0104268
0.0106475
0.0108902
0.0111572
0.0114509
0.011774
0.0121294
0.0125203
0.0129504
0.0134234
0.0139438
0.0145161
0.0151457
0.0158383
0.0166001
0.0174381
0.01836
0.0193739
0.0204893
0.0217163
0.0230659
0.0245505
0.0261835
0.0279799
0.0299558
0.0321294
0.0345204
0.0371504
0.0400434
0.0432258
0.0467263
0.050577
0.0548127
0.0594719
0.0643531
0.0690123
0.073248
0.0770987
0.0805992
0.0837816
0.0866746
0.0893046
0.0916956
0.0938692
0.0958451
0.0976415
0.0992745
0.100759
0.102109
0.103336
0.104451
0.105465
0.106387
0.107225
0.107987
0.108679
0.109309
0.109881
0.110402
0.110875
0.111305
0.111696
0.112051
0.112374
0.112668
0.112935
0.113178
0.113398
0.113599
0.113781
0.113947
0.114098
0.114235
0.00959025
0.00972727
0.00987799
0.0100438
0.0102262
0.0104268
0.0106475
0.0108902
0.0111572
0.0114509
0.011774
0.0121294
0.0125203
0.0129504
0.0134234
0.0139438
0.0145161
0.0151457
0.0158383
0.0166001
0.0174381
0.01836
0.0193739
0.0204893
0.0217163
0.0230659
0.0245505
0.0261835
0.0279799
0.0299558
0.0321294
0.0345204
0.0371504
0.0400434
0.0432258
0.0467263
0.050577
0.0548127
0.0594719
0.0643531
0.0690123
0.073248
0.0770987
0.0805992
0.0837816
0.0866746
0.0893046
0.0916956
0.0938692
0.0958451
0.0976415
0.0992745
0.100759
0.102109
0.103336
0.104451
0.105465
0.106387
0.107225
0.107987
0.108679
0.109309
0.109881
0.110402
0.110875
0.111305
0.111696
0.112051
0.112374
0.112668
0.112935
0.113178
0.113398
0.113599
0.113781
0.113947
0.114098
0.114235
0.00959025
0.00972727
0.00987799
0.0100438
0.0102262
0.0104268
0.0106475
0.0108902
0.0111572
0.0114509
0.011774
0.0121294
0.0125203
0.0129504
0.0134234
0.0139438
0.0145161
0.0151457
0.0158383
0.0166001
0.0174381
0.01836
0.0193739
0.0204893
0.0217163
0.0230659
0.0245505
0.0261835
0.0279799
0.0299558
0.0321294
0.0345204
0.0371504
0.0400434
0.0432258
0.0467263
0.050577
0.0548127
0.0594719
0.0643531
0.0690123
0.073248
0.0770987
0.0805992
0.0837816
0.0866746
0.0893046
0.0916956
0.0938692
0.0958451
0.0976415
0.0992745
0.100759
0.102109
0.103336
0.104451
0.105465
0.106387
0.107225
0.107987
0.108679
0.109309
0.109881
0.110402
0.110875
0.111305
0.111696
0.112051
0.112374
0.112668
0.112935
0.113178
0.113398
0.113599
0.113781
0.113947
0.114098
0.114235
0.00959025
0.00972727
0.00987799
0.0100438
0.0102262
0.0104268
0.0106475
0.0108902
0.0111572
0.0114509
0.011774
0.0121294
0.0125203
0.0129504
0.0134234
0.0139438
0.0145161
0.0151457
0.0158383
0.0166001
0.0174381
0.01836
0.0193739
0.0204893
0.0217163
0.0230659
0.0245505
0.0261835
0.0279799
0.0299558
0.0321294
0.0345204
0.0371504
0.0400434
0.0432258
0.0467263
0.050577
0.0548127
0.0594719
0.0643531
0.0690123
0.073248
0.0770987
0.0805992
0.0837816
0.0866746
0.0893046
0.0916956
0.0938692
0.0958451
0.0976415
0.0992745
0.100759
0.102109
0.103336
0.104451
0.105465
0.106387
0.107225
0.107987
0.108679
0.109309
0.109881
0.110402
0.110875
0.111305
0.111696
0.112051
0.112374
0.112668
0.112935
0.113178
0.113398
0.113599
0.113781
0.113947
0.114098
0.114235
0.00959025
0.00972727
0.00987799
0.0100438
0.0102262
0.0104268
0.0106475
0.0108902
0.0111572
0.0114509
0.011774
0.0121294
0.0125203
0.0129504
0.0134234
0.0139438
0.0145161
0.0151457
0.0158383
0.0166001
0.0174381
0.01836
0.0193739
0.0204893
0.0217163
0.0230659
0.0245505
0.0261835
0.0279799
0.0299558
0.0321294
0.0345204
0.0371504
0.0400434
0.0432258
0.0467263
0.050577
0.0548127
0.0594719
0.0643531
0.0690123
0.073248
0.0770987
0.0805992
0.0837816
0.0866746
0.0893046
0.0916956
0.0938692
0.0958451
0.0976415
0.0992745
0.100759
0.102109
0.103336
0.104451
0.105465
0.106387
0.107225
0.107987
0.108679
0.109309
0.109881
0.110402
0.110875
0.111305
0.111696
0.112051
0.112374
0.112668
0.112935
0.113178
0.113398
0.113599
0.113781
0.113947
0.114098
0.114235
0.00959025
0.00972727
0.00987799
0.0100438
0.0102262
0.0104268
0.0106475
0.0108902
0.0111572
0.0114509
0.011774
0.0121294
0.0125203
0.0129504
0.0134234
0.0139438
0.0145161
0.0151457
0.0158383
0.0166001
0.0174381
0.01836
0.0193739
0.0204893
0.0217163
0.0230659
0.0245505
0.0261835
0.0279799
0.0299558
0.0321294
0.0345204
0.0371504
0.0400434
0.0432258
0.0467263
0.050577
0.0548127
0.0594719
0.0643531
0.0690123
0.073248
0.0770987
0.0805992
0.0837816
0.0866746
0.0893046
0.0916956
0.0938692
0.0958451
0.0976415
0.0992745
0.100759
0.102109
0.103336
0.104451
0.105465
0.106387
0.107225
0.107987
0.108679
0.109309
0.109881
0.110402
0.110875
0.111305
0.111696
0.112051
0.112374
0.112668
0.112935
0.113178
0.113398
0.113599
0.113781
0.113947
0.114098
0.114235
0.00959025
0.00972727
0.00987799
0.0100438
0.0102262
0.0104268
0.0106475
0.0108902
0.0111572
0.0114509
0.011774
0.0121294
0.0125203
0.0129504
0.0134234
0.0139438
0.0145161
0.0151457
0.0158383
0.0166001
0.0174381
0.01836
0.0193739
0.0204893
0.0217163
0.0230659
0.0245505
0.0261835
0.0279799
0.0299558
0.0321294
0.0345204
0.0371504
0.0400434
0.0432258
0.0467263
0.050577
0.0548127
0.0594719
0.0643531
0.0690123
0.073248
0.0770987
0.0805992
0.0837816
0.0866746
0.0893046
0.0916956
0.0938692
0.0958451
0.0976415
0.0992745
0.100759
0.102109
0.103336
0.104451
0.105465
0.106387
0.107225
0.107987
0.108679
0.109309
0.109881
0.110402
0.110875
0.111305
0.111696
0.112051
0.112374
0.112668
0.112935
0.113178
0.113398
0.113599
0.113781
0.113947
0.114098
0.114235
0.00959025
0.00972727
0.00987799
0.0100438
0.0102262
0.0104268
0.0106475
0.0108902
0.0111572
0.0114509
0.011774
0.0121294
0.0125203
0.0129504
0.0134234
0.0139438
0.0145161
0.0151457
0.0158383
0.0166001
0.0174381
0.01836
0.0193739
0.0204893
0.0217163
0.0230659
0.0245505
0.0261835
0.0279799
0.0299558
0.0321294
0.0345204
0.0371504
0.0400434
0.0432258
0.0467263
0.050577
0.0548127
0.0594719
0.0643531
0.0690123
0.073248
0.0770987
0.0805992
0.0837816
0.0866746
0.0893046
0.0916956
0.0938692
0.0958451
0.0976415
0.0992745
0.100759
0.102109
0.103336
0.104451
0.105465
0.106387
0.107225
0.107987
0.108679
0.109309
0.109881
0.110402
0.110875
0.111305
0.111696
0.112051
0.112374
0.112668
0.112935
0.113178
0.113398
0.113599
0.113781
0.113947
0.114098
0.114235
0.00959025
0.00972727
0.00987799
0.0100438
0.0102262
0.0104268
0.0106475
0.0108902
0.0111572
0.0114509
0.011774
0.0121294
0.0125203
0.0129504
0.0134234
0.0139438
0.0145161
0.0151457
0.0158383
0.0166001
0.0174381
0.01836
0.0193739
0.0204893
0.0217163
0.0230659
0.0245505
0.0261835
0.0279799
0.0299558
0.0321294
0.0345204
0.0371504
0.0400434
0.0432258
0.0467263
0.050577
0.0548127
0.0594719
0.0643531
0.0690123
0.073248
0.0770987
0.0805992
0.0837816
0.0866746
0.0893046
0.0916956
0.0938692
0.0958451
0.0976415
0.0992745
0.100759
0.102109
0.103336
0.104451
0.105465
0.106387
0.107225
0.107987
0.108679
0.109309
0.109881
0.110402
0.110875
0.111305
0.111696
0.112051
0.112374
0.112668
0.112935
0.113178
0.113398
0.113599
0.113781
0.113947
0.114098
0.114235
0.00959025
0.00972727
0.00987799
0.0100438
0.0102262
0.0104268
0.0106475
0.0108902
0.0111572
0.0114509
0.011774
0.0121294
0.0125203
0.0129504
0.0134234
0.0139438
0.0145161
0.0151457
0.0158383
0.0166001
0.0174381
0.01836
0.0193739
0.0204893
0.0217163
0.0230659
0.0245505
0.0261835
0.0279799
0.0299558
0.0321294
0.0345204
0.0371504
0.0400434
0.0432258
0.0467263
0.050577
0.0548127
0.0594719
0.0643531
0.0690123
0.073248
0.0770987
0.0805992
0.0837816
0.0866746
0.0893046
0.0916956
0.0938692
0.0958451
0.0976415
0.0992745
0.100759
0.102109
0.103336
0.104451
0.105465
0.106387
0.107225
0.107987
0.108679
0.109309
0.109881
0.110402
0.110875
0.111305
0.111696
0.112051
0.112374
0.112668
0.112935
0.113178
0.113398
0.113599
0.113781
0.113947
0.114098
0.114235
0.00959025
0.00972727
0.00987799
0.0100438
0.0102262
0.0104268
0.0106475
0.0108902
0.0111572
0.0114509
0.011774
0.0121294
0.0125203
0.0129504
0.0134234
0.0139438
0.0145161
0.0151457
0.0158383
0.0166001
0.0174381
0.01836
0.0193739
0.0204893
0.0217163
0.0230659
0.0245505
0.0261835
0.0279799
0.0299558
0.0321294
0.0345204
0.0371504
0.0400434
0.0432258
0.0467263
0.050577
0.0548127
0.0594719
0.0643531
0.0690123
0.073248
0.0770987
0.0805992
0.0837816
0.0866746
0.0893046
0.0916956
0.0938692
0.0958451
0.0976415
0.0992745
0.100759
0.102109
0.103336
0.104451