/*--------------------------------*- C++ -*----------------------------------*\
| =========                 |                                                 |
| \\      /  F ield         | OpenFOAM: The Open Source CFD Toolbox           |
|  \\    /   O peration     | Version:  5.x                                   |
|   \\  /    A nd           | Web:      www.OpenFOAM.org                      |
|    \\/     M anipulation  |                                                 |
\*---------------------------------------------------------------------------*/
FoamFile
{
    version     2.0;
    format      ascii;
    class       volScalarField;
    location    "constant";
    object      cy;
}
// * * * * * * * * * * * * * * * * * * * * * * * * * * * * * * * * * * * * * //

dimensions      [0 1 0 0 0 0 0];

internalField   nonuniform List<scalar> 
128808
(
0.0159426
0.0160845
0.0162407
0.0164124
0.0166013
0.0168092
0.0170378
0.0172892
0.0175658
0.0178701
0.0182048
0.0185729
0.0189779
0.0194234
0.0199134
0.0204524
0.0210454
0.0216976
0.022415
0.0232042
0.0240723
0.0250272
0.0260777
0.0272331
0.0285041
0.0299022
0.0314401
0.0331318
0.0349926
0.0370396
0.0392912
0.041768
0.0444925
0.0474895
0.0507861
0.0544124
0.0584013
0.0627891
0.0673859
0.0717737
0.0757626
0.0793889
0.0826855
0.0856825
0.088407
0.0908838
0.0931354
0.0951824
0.0970432
0.0987349
0.100273
0.101671
0.102942
0.104097
0.105148
0.106103
0.106971
0.10776
0.108477
0.10913
0.109723
0.110262
0.110752
0.111197
0.111602
0.11197
0.112305
0.112609
0.112886
0.113137
0.113366
0.113574
0.113763
0.113934
0.11409
0.114232
0.0159426
0.0160845
0.0162407
0.0164124
0.0166013
0.0168092
0.0170378
0.0172892
0.0175658
0.0178701
0.0182048
0.0185729
0.0189779
0.0194234
0.0199134
0.0204524
0.0210454
0.0216976
0.022415
0.0232042
0.0240723
0.0250272
0.0260777
0.0272331
0.0285041
0.0299022
0.0314401
0.0331318
0.0349926
0.0370396
0.0392912
0.041768
0.0444925
0.0474895
0.0507861
0.0544124
0.0584013
0.0627891
0.0673859
0.0717737
0.0757626
0.0793889
0.0826855
0.0856825
0.088407
0.0908838
0.0931354
0.0951824
0.0970432
0.0987349
0.100273
0.101671
0.102942
0.104097
0.105148
0.106103
0.106971
0.10776
0.108477
0.10913
0.109723
0.110262
0.110752
0.111197
0.111602
0.11197
0.112305
0.112609
0.112886
0.113137
0.113366
0.113574
0.113763
0.113934
0.11409
0.114232
0.0159426
0.0160845
0.0162407
0.0164124
0.0166013
0.0168092
0.0170378
0.0172892
0.0175658
0.0178701
0.0182048
0.0185729
0.0189779
0.0194234
0.0199134
0.0204524
0.0210454
0.0216976
0.022415
0.0232042
0.0240723
0.0250272
0.0260777
0.0272331
0.0285041
0.0299022
0.0314401
0.0331318
0.0349926
0.0370396
0.0392912
0.041768
0.0444925
0.0474895
0.0507861
0.0544124
0.0584013
0.0627891
0.0673859
0.0717737
0.0757626
0.0793889
0.0826855
0.0856825
0.088407
0.0908838
0.0931354
0.0951824
0.0970432
0.0987349
0.100273
0.101671
0.102942
0.104097
0.105148
0.106103
0.106971
0.10776
0.108477
0.10913
0.109723
0.110262
0.110752
0.111197
0.111602
0.11197
0.112305
0.112609
0.112886
0.113137
0.113366
0.113574
0.113763
0.113934
0.11409
0.114232
0.0159426
0.0160845
0.0162407
0.0164124
0.0166013
0.0168092
0.0170378
0.0172892
0.0175658
0.0178701
0.0182048
0.0185729
0.0189779
0.0194234
0.0199134
0.0204524
0.0210454
0.0216976
0.022415
0.0232042
0.0240723
0.0250272
0.0260777
0.0272331
0.0285041
0.0299022
0.0314401
0.0331318
0.0349926
0.0370396
0.0392912
0.041768
0.0444925
0.0474895
0.0507861
0.0544124
0.0584013
0.0627891
0.0673859
0.0717737
0.0757626
0.0793889
0.0826855
0.0856825
0.088407
0.0908838
0.0931354
0.0951824
0.0970432
0.0987349
0.100273
0.101671
0.102942
0.104097
0.105148
0.106103
0.106971
0.10776
0.108477
0.10913
0.109723
0.110262
0.110752
0.111197
0.111602
0.11197
0.112305
0.112609
0.112886
0.113137
0.113366
0.113574
0.113763
0.113934
0.11409
0.114232
0.0159426
0.0160845
0.0162407
0.0164124
0.0166013
0.0168092
0.0170378
0.0172892
0.0175658
0.0178701
0.0182048
0.0185729
0.0189779
0.0194234
0.0199134
0.0204524
0.0210454
0.0216976
0.022415
0.0232042
0.0240723
0.0250272
0.0260777
0.0272331
0.0285041
0.0299022
0.0314401
0.0331318
0.0349926
0.0370396
0.0392912
0.041768
0.0444925
0.0474895
0.0507861
0.0544124
0.0584013
0.0627891
0.0673859
0.0717737
0.0757626
0.0793889
0.0826855
0.0856825
0.088407
0.0908838
0.0931354
0.0951824
0.0970432
0.0987349
0.100273
0.101671
0.102942
0.104097
0.105148
0.106103
0.106971
0.10776
0.108477
0.10913
0.109723
0.110262
0.110752
0.111197
0.111602
0.11197
0.112305
0.112609
0.112886
0.113137
0.113366
0.113574
0.113763
0.113934
0.11409
0.114232
0.0159426
0.0160845
0.0162407
0.0164124
0.0166013
0.0168092
0.0170378
0.0172892
0.0175658
0.0178701
0.0182048
0.0185729
0.0189779
0.0194234
0.0199134
0.0204524
0.0210454
0.0216976
0.022415
0.0232042
0.0240723
0.0250272
0.0260777
0.0272331
0.0285041
0.0299022
0.0314401
0.0331318
0.0349926
0.0370396
0.0392912
0.041768
0.0444925
0.0474895
0.0507861
0.0544124
0.0584013
0.0627891
0.0673859
0.0717737
0.0757626
0.0793889
0.0826855
0.0856825
0.088407
0.0908838
0.0931354
0.0951824
0.0970432
0.0987349
0.100273
0.101671
0.102942
0.104097
0.105148
0.106103
0.106971
0.10776
0.108477
0.10913
0.109723
0.110262
0.110752
0.111197
0.111602
0.11197
0.112305
0.112609
0.112886
0.113137
0.113366
0.113574
0.113763
0.113934
0.11409
0.114232
0.0159426
0.0160845
0.0162407
0.0164124
0.0166013
0.0168092
0.0170378
0.0172892
0.0175658
0.0178701
0.0182048
0.0185729
0.0189779
0.0194234
0.0199134
0.0204524
0.0210454
0.0216976
0.022415
0.0232042
0.0240723
0.0250272
0.0260777
0.0272331
0.0285041
0.0299022
0.0314401
0.0331318
0.0349926
0.0370396
0.0392912
0.041768
0.0444925
0.0474895
0.0507861
0.0544124
0.0584013
0.0627891
0.0673859
0.0717737
0.0757626
0.0793889
0.0826855
0.0856825
0.088407
0.0908838
0.0931354
0.0951824
0.0970432
0.0987349
0.100273
0.101671
0.102942
0.104097
0.105148
0.106103
0.106971
0.10776
0.108477
0.10913
0.109723
0.110262
0.110752
0.111197
0.111602
0.11197
0.112305
0.112609
0.112886
0.113137
0.113366
0.113574
0.113763
0.113934
0.11409
0.114232
0.0159426
0.0160845
0.0162407
0.0164124
0.0166013
0.0168092
0.0170378
0.0172892
0.0175658
0.0178701
0.0182048
0.0185729
0.0189779
0.0194234
0.0199134
0.0204524
0.0210454
0.0216976
0.022415
0.0232042
0.0240723
0.0250272
0.0260777
0.0272331
0.0285041
0.0299022
0.0314401
0.0331318
0.0349926
0.0370396
0.0392912
0.041768
0.0444925
0.0474895
0.0507861
0.0544124
0.0584013
0.0627891
0.0673859
0.0717737
0.0757626
0.0793889
0.0826855
0.0856825
0.088407
0.0908838
0.0931354
0.0951824
0.0970432
0.0987349
0.100273
0.101671
0.102942
0.104097
0.105148
0.106103
0.106971
0.10776
0.108477
0.10913
0.109723
0.110262
0.110752
0.111197
0.111602
0.11197
0.112305
0.112609
0.112886
0.113137
0.113366
0.113574
0.113763
0.113934
0.11409
0.114232
0.0159426
0.0160845
0.0162407
0.0164124
0.0166013
0.0168092
0.0170378
0.0172892
0.0175658
0.0178701
0.0182048
0.0185729
0.0189779
0.0194234
0.0199134
0.0204524
0.0210454
0.0216976
0.022415
0.0232042
0.0240723
0.0250272
0.0260777
0.0272331
0.0285041
0.0299022
0.0314401
0.0331318
0.0349926
0.0370396
0.0392912
0.041768
0.0444925
0.0474895
0.0507861
0.0544124
0.0584013
0.0627891
0.0673859
0.0717737
0.0757626
0.0793889
0.0826855
0.0856825
0.088407
0.0908838
0.0931354
0.0951824
0.0970432
0.0987349
0.100273
0.101671
0.102942
0.104097
0.105148
0.106103
0.106971
0.10776
0.108477
0.10913
0.109723
0.110262
0.110752
0.111197
0.111602
0.11197
0.112305
0.112609
0.112886
0.113137
0.113366
0.113574
0.113763
0.113934
0.11409
0.114232
0.0159426
0.0160845
0.0162407
0.0164124
0.0166013
0.0168092
0.0170378
0.0172892
0.0175658
0.0178701
0.0182048
0.0185729
0.0189779
0.0194234
0.0199134
0.0204524
0.0210454
0.0216976
0.022415
0.0232042
0.0240723
0.0250272
0.0260777
0.0272331
0.0285041
0.0299022
0.0314401
0.0331318
0.0349926
0.0370396
0.0392912
0.041768
0.0444925
0.0474895
0.0507861
0.0544124
0.0584013
0.0627891
0.0673859
0.0717737
0.0757626
0.0793889
0.0826855
0.0856825
0.088407
0.0908838
0.0931354
0.0951824
0.0970432
0.0987349
0.100273
0.101671
0.102942
0.104097
0.105148
0.106103
0.106971
0.10776
0.108477
0.10913
0.109723
0.110262
0.110752
0.111197
0.111602
0.11197
0.112305
0.112609
0.112886
0.113137
0.113366
0.113574
0.113763
0.113934
0.11409
0.114232
0.0159426
0.0160845
0.0162407
0.0164124
0.0166013
0.0168092
0.0170378
0.0172892
0.0175658
0.0178701
0.0182048
0.0185729
0.0189779
0.0194234
0.0199134
0.0204524
0.0210454
0.0216976
0.022415
0.0232042
0.0240723
0.0250272
0.0260777
0.0272331
0.0285041
0.0299022
0.0314401
0.0331318
0.0349926
0.0370396
0.0392912
0.041768
0.0444925
0.0474895
0.0507861
0.0544124
0.0584013
0.0627891
0.0673859
0.0717737
0.0757626
0.0793889
0.0826855
0.0856825
0.088407
0.0908838
0.0931354
0.0951824
0.0970432
0.0987349
0.100273
0.101671
0.102942
0.104097
0.105148
0.106103
0.106971
0.10776
0.108477
0.10913
0.109723
0.110262
0.110752
0.111197
0.111602
0.11197
0.112305
0.112609
0.112886
0.113137
0.113366
0.113574
0.113763
0.113934
0.11409
0.114232
0.0159426
0.0160845
0.0162407
0.0164124
0.0166013
0.0168092
0.0170378
0.0172892
0.0175658
0.0178701
0.0182048
0.0185729
0.0189779
0.0194234
0.0199134
0.0204524
0.0210454
0.0216976
0.022415
0.0232042
0.0240723
0.0250272
0.0260777
0.0272331
0.0285041
0.0299022
0.0314401
0.0331318
0.0349926
0.0370396
0.0392912
0.041768
0.0444925
0.0474895
0.0507861
0.0544124
0.0584013
0.0627891
0.0673859
0.0717737
0.0757626
0.0793889
0.0826855
0.0856825
0.088407
0.0908838
0.0931354
0.0951824
0.0970432
0.0987349
0.100273
0.101671
0.102942
0.104097
0.105148
0.106103
0.106971
0.10776
0.108477
0.10913
0.109723
0.110262
0.110752
0.111197
0.111602
0.11197
0.112305
0.112609
0.112886
0.113137
0.113366
0.113574
0.113763
0.113934
0.11409
0.114232
0.0159426
0.0160845
0.0162407
0.0164124
0.0166013
0.0168092
0.0170378
0.0172892
0.0175658
0.0178701
0.0182048
0.0185729
0.0189779
0.0194234
0.0199134
0.0204524
0.0210454
0.0216976
0.022415
0.0232042
0.0240723
0.0250272
0.0260777
0.0272331
0.0285041
0.0299022
0.0314401
0.0331318
0.0349926
0.0370396
0.0392912
0.041768
0.0444925
0.0474895
0.0507861
0.0544124
0.0584013
0.0627891
0.0673859
0.0717737
0.0757626
0.0793889
0.0826855
0.0856825
0.088407
0.0908838
0.0931354
0.0951824
0.0970432
0.0987349
0.100273
0.101671
0.102942
0.104097
0.105148
0.106103
0.106971
0.10776
0.108477
0.10913
0.109723
0.110262
0.110752
0.111197
0.111602
0.11197
0.112305
0.112609
0.112886
0.113137
0.113366
0.113574
0.113763
0.113934
0.11409
0.114232
0.0159426
0.0160845
0.0162407
0.0164124
0.0166013
0.0168092
0.0170378
0.0172892
0.0175658
0.0178701
0.0182048
0.0185729
0.0189779
0.0194234
0.0199134
0.0204524
0.0210454
0.0216976
0.022415
0.0232042
0.0240723
0.0250272
0.0260777
0.0272331
0.0285041
0.0299022
0.0314401
0.0331318
0.0349926
0.0370396
0.0392912
0.041768
0.0444925
0.0474895
0.0507861
0.0544124
0.0584013
0.0627891
0.0673859
0.0717737
0.0757626
0.0793889
0.0826855
0.0856825
0.088407
0.0908838
0.0931354
0.0951824
0.0970432
0.0987349
0.100273
0.101671
0.102942
0.104097
0.105148
0.106103
0.106971
0.10776
0.108477
0.10913
0.109723
0.110262
0.110752
0.111197
0.111602
0.11197
0.112305
0.112609
0.112886
0.113137
0.113366
0.113574
0.113763
0.113934
0.11409
0.114232
0.0159426
0.0160845
0.0162407
0.0164124
0.0166013
0.0168092
0.0170378
0.0172892
0.0175658
0.0178701
0.0182048
0.0185729
0.0189779
0.0194234
0.0199134
0.0204524
0.0210454
0.0216976
0.022415
0.0232042
0.0240723
0.0250272
0.0260777
0.0272331
0.0285041
0.0299022
0.0314401
0.0331318
0.0349926
0.0370396
0.0392912
0.041768
0.0444925
0.0474895
0.0507861
0.0544124
0.0584013
0.0627891
0.0673859
0.0717737
0.0757626
0.0793889
0.0826855
0.0856825
0.088407
0.0908838
0.0931354
0.0951824
0.0970432
0.0987349
0.100273
0.101671
0.102942
0.104097
0.105148
0.106103
0.106971
0.10776
0.108477
0.10913
0.109723
0.110262
0.110752
0.111197
0.111602
0.11197
0.112305
0.112609
0.112886
0.113137
0.113366
0.113574
0.113763
0.113934
0.11409
0.114232
0.0159426
0.0160845
0.0162407
0.0164124
0.0166013
0.0168092
0.0170378
0.0172892
0.0175658
0.0178701
0.0182048
0.0185729
0.0189779
0.0194234
0.0199134
0.0204524
0.0210454
0.0216976
0.022415
0.0232042
0.0240723
0.0250272
0.0260777
0.0272331
0.0285041
0.0299022
0.0314401
0.0331318
0.0349926
0.0370396
0.0392912
0.041768
0.0444925
0.0474895
0.0507861
0.0544124
0.0584013
0.0627891
0.0673859
0.0717737
0.0757626
0.0793889
0.0826855
0.0856825
0.088407
0.0908838
0.0931354
0.0951824
0.0970432
0.0987349
0.100273
0.101671
0.102942
0.104097
0.105148
0.106103
0.106971
0.10776
0.108477
0.10913
0.109723
0.110262
0.110752
0.111197
0.111602
0.11197
0.112305
0.112609
0.112886
0.113137
0.113366
0.113574
0.113763
0.113934
0.11409
0.114232
0.0159426
0.0160845
0.0162407
0.0164124
0.0166013
0.0168092
0.0170378
0.0172892
0.0175658
0.0178701
0.0182048
0.0185729
0.0189779
0.0194234
0.0199134
0.0204524
0.0210454
0.0216976
0.022415
0.0232042
0.0240723
0.0250272
0.0260777
0.0272331
0.0285041
0.0299022
0.0314401
0.0331318
0.0349926
0.0370396
0.0392912
0.041768
0.0444925
0.0474895
0.0507861
0.0544124
0.0584013
0.0627891
0.0673859
0.0717737
0.0757626
0.0793889
0.0826855
0.0856825
0.088407
0.0908838
0.0931354
0.0951824
0.0970432
0.0987349
0.100273
0.101671
0.102942
0.104097
0.105148
0.106103
0.106971
0.10776
0.108477
0.10913
0.109723
0.110262
0.110752
0.111197
0.111602
0.11197
0.112305
0.112609
0.112886
0.113137
0.113366
0.113574
0.113763
0.113934
0.11409
0.114232
0.0159426
0.0160845
0.0162407
0.0164124
0.0166013
0.0168092
0.0170378
0.0172892
0.0175658
0.0178701
0.0182048
0.0185729
0.0189779
0.0194234
0.0199134
0.0204524
0.0210454
0.0216976
0.022415
0.0232042
0.0240723
0.0250272
0.0260777
0.0272331
0.0285041
0.0299022
0.0314401
0.0331318
0.0349926
0.0370396
0.0392912
0.041768
0.0444925
0.0474895
0.0507861
0.0544124
0.0584013
0.0627891
0.0673859
0.0717737
0.0757626
0.0793889
0.0826855
0.0856825
0.088407
0.0908838
0.0931354
0.0951824
0.0970432
0.0987349
0.100273
0.101671
0.102942
0.104097
0.105148
0.106103
0.106971
0.10776
0.108477
0.10913
0.109723
0.110262
0.110752
0.111197
0.111602
0.11197
0.112305
0.112609
0.112886
0.113137
0.113366
0.113574
0.113763
0.113934
0.11409
0.114232
0.0159426
0.0160845
0.0162407
0.0164124
0.0166013
0.0168092
0.0170378
0.0172892
0.0175658
0.0178701
0.0182048
0.0185729
0.0189779
0.0194234
0.0199134
0.0204524
0.0210454
0.0216976
0.022415
0.0232042
0.0240723
0.0250272
0.0260777
0.0272331
0.0285041
0.0299022
0.0314401
0.0331318
0.0349926
0.0370396
0.0392912
0.041768
0.0444925
0.0474895
0.0507861
0.0544124
0.0584013
0.0627891
0.0673859
0.0717737
0.0757626
0.0793889
0.0826855
0.0856825
0.088407
0.0908838
0.0931354
0.0951824
0.0970432
0.0987349
0.100273
0.101671
0.102942
0.104097
0.105148
0.106103
0.106971
0.10776
0.108477
0.10913
0.109723
0.110262
0.110752
0.111197
0.111602
0.11197
0.112305
0.112609
0.112886
0.113137
0.113366
0.113574
0.113763
0.113934
0.11409
0.114232
0.0159426
0.0160845
0.0162407
0.0164124
0.0166013
0.0168092
0.0170378
0.0172892
0.0175658
0.0178701
0.0182048
0.0185729
0.0189779
0.0194234
0.0199134
0.0204524
0.0210454
0.0216976
0.022415
0.0232042
0.0240723
0.0250272
0.0260777
0.0272331
0.0285041
0.0299022
0.0314401
0.0331318
0.0349926
0.0370396
0.0392912
0.041768
0.0444925
0.0474895
0.0507861
0.0544124
0.0584013
0.0627891
0.0673859
0.0717737
0.0757626
0.0793889
0.0826855
0.0856825
0.088407
0.0908838
0.0931354
0.0951824
0.0970432
0.0987349
0.100273
0.101671
0.102942
0.104097
0.105148
0.106103
0.106971
0.10776
0.108477
0.10913
0.109723
0.110262
0.110752
0.111197
0.111602
0.11197
0.112305
0.112609
0.112886
0.113137
0.113366
0.113574
0.113763
0.113934
0.11409
0.114232
0.0159426
0.0160845
0.0162407
0.0164124
0.0166013
0.0168092
0.0170378
0.0172892
0.0175658
0.0178701
0.0182048
0.0185729
0.0189779
0.0194234
0.0199134
0.0204524
0.0210454
0.0216976
0.022415
0.0232042
0.0240723
0.0250272
0.0260777
0.0272331
0.0285041
0.0299022
0.0314401
0.0331318
0.0349926
0.0370396
0.0392912
0.041768
0.0444925
0.0474895
0.0507861
0.0544124
0.0584013
0.0627891
0.0673859
0.0717737
0.0757626
0.0793889
0.0826855
0.0856825
0.088407
0.0908838
0.0931354
0.0951824
0.0970432
0.0987349
0.100273
0.101671
0.102942
0.104097
0.105148
0.106103
0.106971
0.10776
0.108477
0.10913
0.109723
0.110262
0.110752
0.111197
0.111602
0.11197
0.112305
0.112609
0.112886
0.113137
0.113366
0.113574
0.113763
0.113934
0.11409
0.114232
0.0159426
0.0160845
0.0162407
0.0164124
0.0166013
0.0168092
0.0170378
0.0172892
0.0175658
0.0178701
0.0182048
0.0185729
0.0189779
0.0194234
0.0199134
0.0204524
0.0210454
0.0216976
0.022415
0.0232042
0.0240723
0.0250272
0.0260777
0.0272331
0.0285041
0.0299022
0.0314401
0.0331318
0.0349926
0.0370396
0.0392912
0.041768
0.0444925
0.0474895
0.0507861
0.0544124
0.0584013
0.0627891
0.0673859
0.0717737
0.0757626
0.0793889
0.0826855
0.0856825
0.088407
0.0908838
0.0931354
0.0951824
0.0970432
0.0987349
0.100273
0.101671
0.102942
0.104097
0.105148
0.106103
0.106971
0.10776
0.108477
0.10913
0.109723
0.110262
0.110752
0.111197
0.111602
0.11197
0.112305
0.112609
0.112886
0.113137
0.113366
0.113574
0.113763
0.113934
0.11409
0.114232
0.0159426
0.0160845
0.0162407
0.0164124
0.0166013
0.0168092
0.0170378
0.0172892
0.0175658
0.0178701
0.0182048
0.0185729
0.0189779
0.0194234
0.0199134
0.0204524
0.0210454
0.0216976
0.022415
0.0232042
0.0240723
0.0250272
0.0260777
0.0272331
0.0285041
0.0299022
0.0314401
0.0331318
0.0349926
0.0370396
0.0392912
0.041768
0.0444925
0.0474895
0.0507861
0.0544124
0.0584013
0.0627891
0.0673859
0.0717737
0.0757626
0.0793889
0.0826855
0.0856825
0.088407
0.0908838
0.0931354
0.0951824
0.0970432
0.0987349
0.100273
0.101671
0.102942
0.104097
0.105148
0.106103
0.106971
0.10776
0.108477
0.10913
0.109723
0.110262
0.110752
0.111197
0.111602
0.11197
0.112305
0.112609
0.112886
0.113137
0.113366
0.113574
0.113763
0.113934
0.11409
0.114232
0.0159426
0.0160845
0.0162407
0.0164124
0.0166013
0.0168092
0.0170378
0.0172892
0.0175658
0.0178701
0.0182048
0.0185729
0.0189779
0.0194234
0.0199134
0.0204524
0.0210454
0.0216976
0.022415
0.0232042
0.0240723
0.0250272
0.0260777
0.0272331
0.0285041
0.0299022
0.0314401
0.0331318
0.0349926
0.0370396
0.0392912
0.041768
0.0444925
0.0474895
0.0507861
0.0544124
0.0584013
0.0627891
0.0673859
0.0717737
0.0757626
0.0793889
0.0826855
0.0856825
0.088407
0.0908838
0.0931354
0.0951824
0.0970432
0.0987349
0.100273
0.101671
0.102942
0.104097
0.105148
0.106103
0.106971
0.10776
0.108477
0.10913
0.109723
0.110262
0.110752
0.111197
0.111602
0.11197
0.112305
0.112609
0.112886
0.113137
0.113366
0.113574
0.113763
0.113934
0.11409
0.114232
0.0159426
0.0160845
0.0162407
0.0164124
0.0166013
0.0168092
0.0170378
0.0172892
0.0175658
0.0178701
0.0182048
0.0185729
0.0189779
0.0194234
0.0199134
0.0204524
0.0210454
0.0216976
0.022415
0.0232042
0.0240723
0.0250272
0.0260777
0.0272331
0.0285041
0.0299022
0.0314401
0.0331318
0.0349926
0.0370396
0.0392912
0.041768
0.0444925
0.0474895
0.0507861
0.0544124
0.0584013
0.0627891
0.0673859
0.0717737
0.0757626
0.0793889
0.0826855
0.0856825
0.088407
0.0908838
0.0931354
0.0951824
0.0970432
0.0987349
0.100273
0.101671
0.102942
0.104097
0.105148
0.106103
0.106971
0.10776
0.108477
0.10913
0.109723
0.110262
0.110752
0.111197
0.111602
0.11197
0.112305
0.112609
0.112886
0.113137
0.113366
0.113574
0.113763
0.113934
0.11409
0.114232
0.0159426
0.0160845
0.0162407
0.0164124
0.0166013
0.0168092
0.0170378
0.0172892
0.0175658
0.0178701
0.0182048
0.0185729
0.0189779
0.0194234
0.0199134
0.0204524
0.0210454
0.0216976
0.022415
0.0232042
0.0240723
0.0250272
0.0260777
0.0272331
0.0285041
0.0299022
0.0314401
0.0331318
0.0349926
0.0370396
0.0392912
0.041768
0.0444925
0.0474895
0.0507861
0.0544124
0.0584013
0.0627891
0.0673859
0.0717737
0.0757626
0.0793889
0.0826855
0.0856825
0.088407
0.0908838
0.0931354
0.0951824
0.0970432
0.0987349
0.100273
0.101671
0.102942
0.104097
0.105148
0.106103
0.106971
0.10776
0.108477
0.10913
0.109723
0.110262
0.110752
0.111197
0.111602
0.11197
0.112305
0.112609
0.112886
0.113137
0.113366
0.113574
0.113763
0.113934
0.11409
0.114232
0.0159426
0.0160845
0.0162407
0.0164124
0.0166013
0.0168092
0.0170378
0.0172892
0.0175658
0.0178701
0.0182048
0.0185729
0.0189779
0.0194234
0.0199134
0.0204524
0.0210454
0.0216976
0.022415
0.0232042
0.0240723
0.0250272
0.0260777
0.0272331
0.0285041
0.0299022
0.0314401
0.0331318
0.0349926
0.0370396
0.0392912
0.041768
0.0444925
0.0474895
0.0507861
0.0544124
0.0584013
0.0627891
0.0673859
0.0717737
0.0757626
0.0793889
0.0826855
0.0856825
0.088407
0.0908838
0.0931354
0.0951824
0.0970432
0.0987349
0.100273
0.101671
0.102942
0.104097
0.105148
0.106103
0.106971
0.10776
0.108477
0.10913
0.109723
0.110262
0.110752
0.111197
0.111602
0.11197
0.112305
0.112609
0.112886
0.113137
0.113366
0.113574
0.113763
0.113934
0.11409
0.114232
0.0159426
0.0160845
0.0162407
0.0164124
0.0166013
0.0168092
0.0170378
0.0172892
0.0175658
0.0178701
0.0182048
0.0185729
0.0189779
0.0194234
0.0199134
0.0204524
0.0210454
0.0216976
0.022415
0.0232042
0.0240723
0.0250272
0.0260777
0.0272331
0.0285041
0.0299022
0.0314401
0.0331318
0.0349926
0.0370396
0.0392912
0.041768
0.0444925
0.0474895
0.0507861
0.0544124
0.0584013
0.0627891
0.0673859
0.0717737
0.0757626
0.0793889
0.0826855
0.0856825
0.088407
0.0908838
0.0931354
0.0951824
0.0970432
0.0987349
0.100273
0.101671
0.102942
0.104097
0.105148
0.106103
0.106971
0.10776
0.108477
0.10913
0.109723
0.110262
0.110752
0.111197
0.111602
0.11197
0.112305
0.112609
0.112886
0.113137
0.113366
0.113574
0.113763
0.113934
0.11409
0.114232
0.0159426
0.0160845
0.0162407
0.0164124
0.0166013
0.0168092
0.0170378
0.0172892
0.0175658
0.0178701
0.0182048
0.0185729
0.0189779
0.0194234
0.0199134
0.0204524
0.0210454
0.0216976
0.022415
0.0232042
0.0240723
0.0250272
0.0260777
0.0272331
0.0285041
0.0299022
0.0314401
0.0331318
0.0349926
0.0370396
0.0392912
0.041768
0.0444925
0.0474895
0.0507861
0.0544124
0.0584013
0.0627891
0.0673859
0.0717737
0.0757626
0.0793889
0.0826855
0.0856825
0.088407
0.0908838
0.0931354
0.0951824
0.0970432
0.0987349
0.100273
0.101671
0.102942
0.104097
0.105148
0.106103
0.106971
0.10776
0.108477
0.10913
0.109723
0.110262
0.110752
0.111197
0.111602
0.11197
0.112305
0.112609
0.112886
0.113137
0.113366
0.113574
0.113763
0.113934
0.11409
0.114232
0.0159426
0.0160845
0.0162407
0.0164124
0.0166013
0.0168092
0.0170378
0.0172892
0.0175658
0.0178701
0.0182048
0.0185729
0.0189779
0.0194234
0.0199134
0.0204524
0.0210454
0.0216976
0.022415
0.0232042
0.0240723
0.0250272
0.0260777
0.0272331
0.0285041
0.0299022
0.0314401
0.0331318
0.0349926
0.0370396
0.0392912
0.041768
0.0444925
0.0474895
0.0507861
0.0544124
0.0584013
0.0627891
0.0673859
0.0717737
0.0757626
0.0793889
0.0826855
0.0856825
0.088407
0.0908838
0.0931354
0.0951824
0.0970432
0.0987349
0.100273
0.101671
0.102942
0.104097
0.105148
0.106103
0.106971
0.10776
0.108477
0.10913
0.109723
0.110262
0.110752
0.111197
0.111602
0.11197
0.112305
0.112609
0.112886
0.113137
0.113366
0.113574
0.113763
0.113934
0.11409
0.114232
0.0159426
0.0160845
0.0162407
0.0164124
0.0166013
0.0168092
0.0170378
0.0172892
0.0175658
0.0178701
0.0182048
0.0185729
0.0189779
0.0194234
0.0199134
0.0204524
0.0210454
0.0216976
0.022415
0.0232042
0.0240723
0.0250272
0.0260777
0.0272331
0.0285041
0.0299022
0.0314401
0.0331318
0.0349926
0.0370396
0.0392912
0.041768
0.0444925
0.0474895
0.0507861
0.0544124
0.0584013
0.0627891
0.0673859
0.0717737
0.0757626
0.0793889
0.0826855
0.0856825
0.088407
0.0908838
0.0931354
0.0951824
0.0970432
0.0987349
0.100273
0.101671
0.102942
0.104097
0.105148
0.106103
0.106971
0.10776
0.108477
0.10913
0.109723
0.110262
0.110752
0.111197
0.111602
0.11197
0.112305
0.112609
0.112886
0.113137
0.113366
0.113574
0.113763
0.113934
0.11409
0.114232
0.0159426
0.0160845
0.0162407
0.0164124
0.0166013
0.0168092
0.0170378
0.0172892
0.0175658
0.0178701
0.0182048
0.0185729
0.0189779
0.0194234
0.0199134
0.0204524
0.0210454
0.0216976
0.022415
0.0232042
0.0240723
0.0250272
0.0260777
0.0272331
0.0285041
0.0299022
0.0314401
0.0331318
0.0349926
0.0370396
0.0392912
0.041768
0.0444925
0.0474895
0.0507861
0.0544124
0.0584013
0.0627891
0.0673859
0.0717737
0.0757626
0.0793889
0.0826855
0.0856825
0.088407
0.0908838
0.0931354
0.0951824
0.0970432
0.0987349
0.100273
0.101671
0.102942
0.104097
0.105148
0.106103
0.106971
0.10776
0.108477
0.10913
0.109723
0.110262
0.110752
0.111197
0.111602
0.11197
0.112305
0.112609
0.112886
0.113137
0.113366
0.113574
0.113763
0.113934
0.11409
0.114232
0.0159426
0.0160845
0.0162407
0.0164124
0.0166013
0.0168092
0.0170378
0.0172892
0.0175658
0.0178701
0.0182048
0.0185729
0.0189779
0.0194234
0.0199134
0.0204524
0.0210454
0.0216976
0.022415
0.0232042
0.0240723
0.0250272
0.0260777
0.0272331
0.0285041
0.0299022
0.0314401
0.0331318
0.0349926
0.0370396
0.0392912
0.041768
0.0444925
0.0474895
0.0507861
0.0544124
0.0584013
0.0627891
0.0673859
0.0717737
0.0757626
0.0793889
0.0826855
0.0856825
0.088407
0.0908838
0.0931354
0.0951824
0.0970432
0.0987349
0.100273
0.101671
0.102942
0.104097
0.105148
0.106103
0.106971
0.10776
0.108477
0.10913
0.109723
0.110262
0.110752
0.111197
0.111602
0.11197
0.112305
0.112609
0.112886
0.113137
0.113366
0.113574
0.113763
0.113934
0.11409
0.114232
0.0159426
0.0160845
0.0162407
0.0164124
0.0166013
0.0168092
0.0170378
0.0172892
0.0175658
0.0178701
0.0182048
0.0185729
0.0189779
0.0194234
0.0199134
0.0204524
0.0210454
0.0216976
0.022415
0.0232042
0.0240723
0.0250272
0.0260777
0.0272331
0.0285041
0.0299022
0.0314401
0.0331318
0.0349926
0.0370396
0.0392912
0.041768
0.0444925
0.0474895
0.0507861
0.0544124
0.0584013
0.0627891
0.0673859
0.0717737
0.0757626
0.0793889
0.0826855
0.0856825
0.088407
0.0908838
0.0931354
0.0951824
0.0970432
0.0987349
0.100273
0.101671
0.102942
0.104097
0.105148
0.106103
0.106971
0.10776
0.108477
0.10913
0.109723
0.110262
0.110752
0.111197
0.111602
0.11197
0.112305
0.112609
0.112886
0.113137
0.113366
0.113574
0.113763
0.113934
0.11409
0.114232
0.0159426
0.0160845
0.0162407
0.0164124
0.0166013
0.0168092
0.0170378
0.0172892
0.0175658
0.0178701
0.0182048
0.0185729
0.0189779
0.0194234
0.0199134
0.0204524
0.0210454
0.0216976
0.022415
0.0232042
0.0240723
0.0250272
0.0260777
0.0272331
0.0285041
0.0299022
0.0314401
0.0331318
0.0349926
0.0370396
0.0392912
0.041768
0.0444925
0.0474895
0.0507861
0.0544124
0.0584013
0.0627891
0.0673859
0.0717737
0.0757626
0.0793889
0.0826855
0.0856825
0.088407
0.0908838
0.0931354
0.0951824
0.0970432
0.0987349
0.100273
0.101671
0.102942
0.104097
0.105148
0.106103
0.106971
0.10776
0.108477
0.10913
0.109723
0.110262
0.110752
0.111197
0.111602
0.11197
0.112305
0.112609
0.112886
0.113137
0.113366
0.113574
0.113763
0.113934
0.11409
0.114232
0.0159426
0.0160845
0.0162407
0.0164124
0.0166013
0.0168092
0.0170378
0.0172892
0.0175658
0.0178701
0.0182048
0.0185729
0.0189779
0.0194234
0.0199134
0.0204524
0.0210454
0.0216976
0.022415
0.0232042
0.0240723
0.0250272
0.0260777
0.0272331
0.0285041
0.0299022
0.0314401
0.0331318
0.0349926
0.0370396
0.0392912
0.041768
0.0444925
0.0474895
0.0507861
0.0544124
0.0584013
0.0627891
0.0673859
0.0717737
0.0757626
0.0793889
0.0826855
0.0856825
0.088407
0.0908838
0.0931354
0.0951824
0.0970432
0.0987349
0.100273
0.101671
0.102942
0.104097
0.105148
0.106103
0.106971
0.10776
0.108477
0.10913
0.109723
0.110262
0.110752
0.111197
0.111602
0.11197
0.112305
0.112609
0.112886
0.113137
0.113366
0.113574
0.113763
0.113934
0.11409
0.114232
0.0159426
0.0160845
0.0162407
0.0164124
0.0166013
0.0168092
0.0170378
0.0172892
0.0175658
0.0178701
0.0182048
0.0185729
0.0189779
0.0194234
0.0199134
0.0204524
0.0210454
0.0216976
0.022415
0.0232042
0.0240723
0.0250272
0.0260777
0.0272331
0.0285041
0.0299022
0.0314401
0.0331318
0.0349926
0.0370396
0.0392912
0.041768
0.0444925
0.0474895
0.0507861
0.0544124
0.0584013
0.0627891
0.0673859
0.0717737
0.0757626
0.0793889
0.0826855
0.0856825
0.088407
0.0908838
0.0931354
0.0951824
0.0970432
0.0987349
0.100273
0.101671
0.102942
0.104097
0.105148
0.106103
0.106971
0.10776
0.108477
0.10913
0.109723
0.110262
0.110752
0.111197
0.111602
0.11197
0.112305
0.112609
0.112886
0.113137
0.113366
0.113574
0.113763
0.113934
0.11409
0.114232
0.0159426
0.0160845
0.0162407
0.0164124
0.0166013
0.0168092
0.0170378
0.0172892
0.0175658
0.0178701
0.0182048
0.0185729
0.0189779
0.0194234
0.0199134
0.0204524
0.0210454
0.0216976
0.022415
0.0232042
0.0240723
0.0250272
0.0260777
0.0272331
0.0285041
0.0299022
0.0314401
0.0331318
0.0349926
0.0370396
0.0392912
0.041768
0.0444925
0.0474895
0.0507861
0.0544124
0.0584013
0.0627891
0.0673859
0.0717737
0.0757626
0.0793889
0.0826855
0.0856825
0.088407
0.0908838
0.0931354
0.0951824
0.0970432
0.0987349
0.100273
0.101671
0.102942
0.104097
0.105148
0.106103
0.106971
0.10776
0.108477
0.10913
0.109723
0.110262
0.110752
0.111197
0.111602
0.11197
0.112305
0.112609
0.112886
0.113137
0.113366
0.113574
0.113763
0.113934
0.11409
0.114232
0.0159426
0.0160845
0.0162407
0.0164124
0.0166013
0.0168092
0.0170378
0.0172892
0.0175658
0.0178701
0.0182048
0.0185729
0.0189779
0.0194234
0.0199134
0.0204524
0.0210454
0.0216976
0.022415
0.0232042
0.0240723
0.0250272
0.0260777
0.0272331
0.0285041
0.0299022
0.0314401
0.0331318
0.0349926
0.0370396
0.0392912
0.041768
0.0444925
0.0474895
0.0507861
0.0544124
0.0584013
0.0627891
0.0673859
0.0717737
0.0757626
0.0793889
0.0826855
0.0856825
0.088407
0.0908838
0.0931354
0.0951824
0.0970432
0.0987349
0.100273
0.101671
0.102942
0.104097
0.105148
0.106103
0.106971
0.10776
0.108477
0.10913
0.109723
0.110262
0.110752
0.111197
0.111602
0.11197
0.112305
0.112609
0.112886
0.113137
0.113366
0.113574
0.113763
0.113934
0.11409
0.114232
0.0159426
0.0160845
0.0162407
0.0164124
0.0166013
0.0168092
0.0170378
0.0172892
0.0175658
0.0178701
0.0182048
0.0185729
0.0189779
0.0194234
0.0199134
0.0204524
0.0210454
0.0216976
0.022415
0.0232042
0.0240723
0.0250272
0.0260777
0.0272331
0.0285041
0.0299022
0.0314401
0.0331318
0.0349926
0.0370396
0.0392912
0.041768
0.0444925
0.0474895
0.0507861
0.0544124
0.0584013
0.0627891
0.0673859
0.0717737
0.0757626
0.0793889
0.0826855
0.0856825
0.088407
0.0908838
0.0931354
0.0951824
0.0970432
0.0987349
0.100273
0.101671
0.102942
0.104097
0.105148
0.106103
0.106971
0.10776
0.108477
0.10913
0.109723
0.110262
0.110752
0.111197
0.111602
0.11197
0.112305
0.112609
0.112886
0.113137
0.113366
0.113574
0.113763
0.113934
0.11409
0.114232
0.0159426
0.0160845
0.0162407
0.0164124
0.0166013