/*--------------------------------*- C++ -*----------------------------------*\
| =========                 |                                                 |
| \\      /  F ield         | OpenFOAM: The Open Source CFD Toolbox           |
|  \\    /   O peration     | Version:  5.x                                   |
|   \\  /    A nd           | Web:      www.OpenFOAM.org                      |
|    \\/     M anipulation  |                                                 |
\*---------------------------------------------------------------------------*/
FoamFile
{
    version     2.0;
    format      ascii;
    class       volScalarField;
    location    "constant";
    object      cy;
}
// * * * * * * * * * * * * * * * * * * * * * * * * * * * * * * * * * * * * * //

dimensions      [0 1 0 0 0 0 0];

internalField   nonuniform List<scalar> 
131948
(
0.0254673
0.0256088
0.0257643
0.0259354
0.0261236
0.0263307
0.0265584
0.026809
0.0270845
0.0273877
0.0277211
0.0280879
0.0284914
0.0289352
0.0294234
0.0299604
0.0305512
0.031201
0.0319157
0.032702
0.0335669
0.0345182
0.0355648
0.0367159
0.0379822
0.0393751
0.0409073
0.0425927
0.0444466
0.046486
0.0487292
0.0511969
0.0539112
0.056897
0.0601814
0.0637942
0.0677683
0.0719317
0.0759058
0.0795186
0.082803
0.0857888
0.0885031
0.0909708
0.093214
0.0952534
0.0971073
0.0987927
0.100325
0.101718
0.102984
0.104135
0.105182
0.106133
0.106998
0.107784
0.108499
0.109149
0.10974
0.110277
0.110765
0.111209
0.111612
0.111979
0.112312
0.112615
0.112891
0.113142
0.113369
0.113576
0.113765
0.113936
0.114091
0.114233
0.0254673
0.0256088
0.0257643
0.0259354
0.0261236
0.0263307
0.0265584
0.026809
0.0270845
0.0273877
0.0277211
0.0280879
0.0284914
0.0289352
0.0294234
0.0299604
0.0305512
0.031201
0.0319157
0.032702
0.0335669
0.0345182
0.0355648
0.0367159
0.0379822
0.0393751
0.0409073
0.0425927
0.0444466
0.046486
0.0487292
0.0511969
0.0539112
0.056897
0.0601814
0.0637942
0.0677683
0.0719317
0.0759058
0.0795186
0.082803
0.0857888
0.0885031
0.0909708
0.093214
0.0952534
0.0971073
0.0987927
0.100325
0.101718
0.102984
0.104135
0.105182
0.106133
0.106998
0.107784
0.108499
0.109149
0.10974
0.110277
0.110765
0.111209
0.111612
0.111979
0.112312
0.112615
0.112891
0.113142
0.113369
0.113576
0.113765
0.113936
0.114091
0.114233
0.0254673
0.0256088
0.0257643
0.0259354
0.0261236
0.0263307
0.0265584
0.026809
0.0270845
0.0273877
0.0277211
0.0280879
0.0284914
0.0289352
0.0294234
0.0299604
0.0305512
0.031201
0.0319157
0.032702
0.0335669
0.0345182
0.0355648
0.0367159
0.0379822
0.0393751
0.0409073
0.0425927
0.0444466
0.046486
0.0487292
0.0511969
0.0539112
0.056897
0.0601814
0.0637942
0.0677683
0.0719317
0.0759058
0.0795186
0.082803
0.0857888
0.0885031
0.0909708
0.093214
0.0952534
0.0971073
0.0987927
0.100325
0.101718
0.102984
0.104135
0.105182
0.106133
0.106998
0.107784
0.108499
0.109149
0.10974
0.110277
0.110765
0.111209
0.111612
0.111979
0.112312
0.112615
0.112891
0.113142
0.113369
0.113576
0.113765
0.113936
0.114091
0.114233
0.0254673
0.0256088
0.0257643
0.0259354
0.0261236
0.0263307
0.0265584
0.026809
0.0270845
0.0273877
0.0277211
0.0280879
0.0284914
0.0289352
0.0294234
0.0299604
0.0305512
0.031201
0.0319157
0.032702
0.0335669
0.0345182
0.0355648
0.0367159
0.0379822
0.0393751
0.0409073
0.0425927
0.0444466
0.046486
0.0487292
0.0511969
0.0539112
0.056897
0.0601814
0.0637942
0.0677683
0.0719317
0.0759058
0.0795186
0.082803
0.0857888
0.0885031
0.0909708
0.093214
0.0952534
0.0971073
0.0987927
0.100325
0.101718
0.102984
0.104135
0.105182
0.106133
0.106998
0.107784
0.108499
0.109149
0.10974
0.110277
0.110765
0.111209
0.111612
0.111979
0.112312
0.112615
0.112891
0.113142
0.113369
0.113576
0.113765
0.113936
0.114091
0.114233
0.0254673
0.0256088
0.0257643
0.0259354
0.0261236
0.0263307
0.0265584
0.026809
0.0270845
0.0273877
0.0277211
0.0280879
0.0284914
0.0289352
0.0294234
0.0299604
0.0305512
0.031201
0.0319157
0.032702
0.0335669
0.0345182
0.0355648
0.0367159
0.0379822
0.0393751
0.0409073
0.0425927
0.0444466
0.046486
0.0487292
0.0511969
0.0539112
0.056897
0.0601814
0.0637942
0.0677683
0.0719317
0.0759058
0.0795186
0.082803
0.0857888
0.0885031
0.0909708
0.093214
0.0952534
0.0971073
0.0987927
0.100325
0.101718
0.102984
0.104135
0.105182
0.106133
0.106998
0.107784
0.108499
0.109149
0.10974
0.110277
0.110765
0.111209
0.111612
0.111979
0.112312
0.112615
0.112891
0.113142
0.113369
0.113576
0.113765
0.113936
0.114091
0.114233
0.0254673
0.0256088
0.0257643
0.0259354
0.0261236
0.0263307
0.0265584
0.026809
0.0270845
0.0273877
0.0277211
0.0280879
0.0284914
0.0289352
0.0294234
0.0299604
0.0305512
0.031201
0.0319157
0.032702
0.0335669
0.0345182
0.0355648
0.0367159
0.0379822
0.0393751
0.0409073
0.0425927
0.0444466
0.046486
0.0487292
0.0511969
0.0539112
0.056897
0.0601814
0.0637942
0.0677683
0.0719317
0.0759058
0.0795186
0.082803
0.0857888
0.0885031
0.0909708
0.093214
0.0952534
0.0971073
0.0987927
0.100325
0.101718
0.102984
0.104135
0.105182
0.106133
0.106998
0.107784
0.108499
0.109149
0.10974
0.110277
0.110765
0.111209
0.111612
0.111979
0.112312
0.112615
0.112891
0.113142
0.113369
0.113576
0.113765
0.113936
0.114091
0.114233
0.0254673
0.0256088
0.0257643
0.0259354
0.0261236
0.0263307
0.0265584
0.026809
0.0270845
0.0273877
0.0277211
0.0280879
0.0284914
0.0289352
0.0294234
0.0299604
0.0305512
0.031201
0.0319157
0.032702
0.0335669
0.0345182
0.0355648
0.0367159
0.0379822
0.0393751
0.0409073
0.0425927
0.0444466
0.046486
0.0487292
0.0511969
0.0539112
0.056897
0.0601814
0.0637942
0.0677683
0.0719317
0.0759058
0.0795186
0.082803
0.0857888
0.0885031
0.0909708
0.093214
0.0952534
0.0971073
0.0987927
0.100325
0.101718
0.102984
0.104135
0.105182
0.106133
0.106998
0.107784
0.108499
0.109149
0.10974
0.110277
0.110765
0.111209
0.111612
0.111979
0.112312
0.112615
0.112891
0.113142
0.113369
0.113576
0.113765
0.113936
0.114091
0.114233
0.0254673
0.0256088
0.0257643
0.0259354
0.0261236
0.0263307
0.0265584
0.026809
0.0270845
0.0273877
0.0277211
0.0280879
0.0284914
0.0289352
0.0294234
0.0299604
0.0305512
0.031201
0.0319157
0.032702
0.0335669
0.0345182
0.0355648
0.0367159
0.0379822
0.0393751
0.0409073
0.0425927
0.0444466
0.046486
0.0487292
0.0511969
0.0539112
0.056897
0.0601814
0.0637942
0.0677683
0.0719317
0.0759058
0.0795186
0.082803
0.0857888
0.0885031
0.0909708
0.093214
0.0952534
0.0971073
0.0987927
0.100325
0.101718
0.102984
0.104135
0.105182
0.106133
0.106998
0.107784
0.108499
0.109149
0.10974
0.110277
0.110765
0.111209
0.111612
0.111979
0.112312
0.112615
0.112891
0.113142
0.113369
0.113576
0.113765
0.113936
0.114091
0.114233
0.0254673
0.0256088
0.0257643
0.0259354
0.0261236
0.0263307
0.0265584
0.026809
0.0270845
0.0273877
0.0277211
0.0280879
0.0284914
0.0289352
0.0294234
0.0299604
0.0305512
0.031201
0.0319157
0.032702
0.0335669
0.0345182
0.0355648
0.0367159
0.0379822
0.0393751
0.0409073
0.0425927
0.0444466
0.046486
0.0487292
0.0511969
0.0539112
0.056897
0.0601814
0.0637942
0.0677683
0.0719317
0.0759058
0.0795186
0.082803
0.0857888
0.0885031
0.0909708
0.093214
0.0952534
0.0971073
0.0987927
0.100325
0.101718
0.102984
0.104135
0.105182
0.106133
0.106998
0.107784
0.108499
0.109149
0.10974
0.110277
0.110765
0.111209
0.111612
0.111979
0.112312
0.112615
0.112891
0.113142
0.113369
0.113576
0.113765
0.113936
0.114091
0.114233
0.0254673
0.0256088
0.0257643
0.0259354
0.0261236
0.0263307
0.0265584
0.026809
0.0270845
0.0273877
0.0277211
0.0280879
0.0284914
0.0289352
0.0294234
0.0299604
0.0305512
0.031201
0.0319157
0.032702
0.0335669
0.0345182
0.0355648
0.0367159
0.0379822
0.0393751
0.0409073
0.0425927
0.0444466
0.046486
0.0487292
0.0511969
0.0539112
0.056897
0.0601814
0.0637942
0.0677683
0.0719317
0.0759058
0.0795186
0.082803
0.0857888
0.0885031
0.0909708
0.093214
0.0952534
0.0971073
0.0987927
0.100325
0.101718
0.102984
0.104135
0.105182
0.106133
0.106998
0.107784
0.108499
0.109149
0.10974
0.110277
0.110765
0.111209
0.111612
0.111979
0.112312
0.112615
0.112891
0.113142
0.113369
0.113576
0.113765
0.113936
0.114091
0.114233
0.0254673
0.0256088
0.0257643
0.0259354
0.0261236
0.0263307
0.0265584
0.026809
0.0270845
0.0273877
0.0277211
0.0280879
0.0284914
0.0289352
0.0294234
0.0299604
0.0305512
0.031201
0.0319157
0.032702
0.0335669
0.0345182
0.0355648
0.0367159
0.0379822
0.0393751
0.0409073
0.0425927
0.0444466
0.046486
0.0487292
0.0511969
0.0539112
0.056897
0.0601814
0.0637942
0.0677683
0.0719317
0.0759058
0.0795186
0.082803
0.0857888
0.0885031
0.0909708
0.093214
0.0952534
0.0971073
0.0987927
0.100325
0.101718
0.102984
0.104135
0.105182
0.106133
0.106998
0.107784
0.108499
0.109149
0.10974
0.110277
0.110765
0.111209
0.111612
0.111979
0.112312
0.112615
0.112891
0.113142
0.113369
0.113576
0.113765
0.113936
0.114091
0.114233
0.0254673
0.0256088
0.0257643
0.0259354
0.0261236
0.0263307
0.0265584
0.026809
0.0270845
0.0273877
0.0277211
0.0280879
0.0284914
0.0289352
0.0294234
0.0299604
0.0305512
0.031201
0.0319157
0.032702
0.0335669
0.0345182
0.0355648
0.0367159
0.0379822
0.0393751
0.0409073
0.0425927
0.0444466
0.046486
0.0487292
0.0511969
0.0539112
0.056897
0.0601814
0.0637942
0.0677683
0.0719317
0.0759058
0.0795186
0.082803
0.0857888
0.0885031
0.0909708
0.093214
0.0952534
0.0971073
0.0987927
0.100325
0.101718
0.102984
0.104135
0.105182
0.106133
0.106998
0.107784
0.108499
0.109149
0.10974
0.110277
0.110765
0.111209
0.111612
0.111979
0.112312
0.112615
0.112891
0.113142
0.113369
0.113576
0.113765
0.113936
0.114091
0.114233
0.0254673
0.0256088
0.0257643
0.0259354
0.0261236
0.0263307
0.0265584
0.026809
0.0270845
0.0273877
0.0277211
0.0280879
0.0284914
0.0289352
0.0294234
0.0299604
0.0305512
0.031201
0.0319157
0.032702
0.0335669
0.0345182
0.0355648
0.0367159
0.0379822
0.0393751
0.0409073
0.0425927
0.0444466
0.046486
0.0487292
0.0511969
0.0539112
0.056897
0.0601814
0.0637942
0.0677683
0.0719317
0.0759058
0.0795186
0.082803
0.0857888
0.0885031
0.0909708
0.093214
0.0952534
0.0971073
0.0987927
0.100325
0.101718
0.102984
0.104135
0.105182
0.106133
0.106998
0.107784
0.108499
0.109149
0.10974
0.110277
0.110765
0.111209
0.111612
0.111979
0.112312
0.112615
0.112891
0.113142
0.113369
0.113576
0.113765
0.113936
0.114091
0.114233
0.0254673
0.0256088
0.0257643
0.0259354
0.0261236
0.0263307
0.0265584
0.026809
0.0270845
0.0273877
0.0277211
0.0280879
0.0284914
0.0289352
0.0294234
0.0299604
0.0305512
0.031201
0.0319157
0.032702
0.0335669
0.0345182
0.0355648
0.0367159
0.0379822
0.0393751
0.0409073
0.0425927
0.0444466
0.046486
0.0487292
0.0511969
0.0539112
0.056897
0.0601814
0.0637942
0.0677683
0.0719317
0.0759058
0.0795186
0.082803
0.0857888
0.0885031
0.0909708
0.093214
0.0952534
0.0971073
0.0987927
0.100325
0.101718
0.102984
0.104135
0.105182
0.106133
0.106998
0.107784
0.108499
0.109149
0.10974
0.110277
0.110765
0.111209
0.111612
0.111979
0.112312
0.112615
0.112891
0.113142
0.113369
0.113576
0.113765
0.113936
0.114091
0.114233
0.0254673
0.0256088
0.0257643
0.0259354
0.0261236
0.0263307
0.0265584
0.026809
0.0270845
0.0273877
0.0277211
0.0280879
0.0284914
0.0289352
0.0294234
0.0299604
0.0305512
0.031201
0.0319157
0.032702
0.0335669
0.0345182
0.0355648
0.0367159
0.0379822
0.0393751
0.0409073
0.0425927
0.0444466
0.046486
0.0487292
0.0511969
0.0539112
0.056897
0.0601814
0.0637942
0.0677683
0.0719317
0.0759058
0.0795186
0.082803
0.0857888
0.0885031
0.0909708
0.093214
0.0952534
0.0971073
0.0987927
0.100325
0.101718
0.102984
0.104135
0.105182
0.106133
0.106998
0.107784
0.108499
0.109149
0.10974
0.110277
0.110765
0.111209
0.111612
0.111979
0.112312
0.112615
0.112891
0.113142
0.113369
0.113576
0.113765
0.113936
0.114091
0.114233
0.0254673
0.0256088
0.0257643
0.0259354
0.0261236
0.0263307
0.0265584
0.026809
0.0270845
0.0273877
0.0277211
0.0280879
0.0284914
0.0289352
0.0294234
0.0299604
0.0305512
0.031201
0.0319157
0.032702
0.0335669
0.0345182
0.0355648
0.0367159
0.0379822
0.0393751
0.0409073
0.0425927
0.0444466
0.046486
0.0487292
0.0511969
0.0539112
0.056897
0.0601814
0.0637942
0.0677683
0.0719317
0.0759058
0.0795186
0.082803
0.0857888
0.0885031
0.0909708
0.093214
0.0952534
0.0971073
0.0987927
0.100325
0.101718
0.102984
0.104135
0.105182
0.106133
0.106998
0.107784
0.108499
0.109149
0.10974
0.110277
0.110765
0.111209
0.111612
0.111979
0.112312
0.112615
0.112891
0.113142
0.113369
0.113576
0.113765
0.113936
0.114091
0.114233
0.0254673
0.0256088
0.0257643
0.0259354
0.0261236
0.0263307
0.0265584
0.026809
0.0270845
0.0273877
0.0277211
0.0280879
0.0284914
0.0289352
0.0294234
0.0299604
0.0305512
0.031201
0.0319157
0.032702
0.0335669
0.0345182
0.0355648
0.0367159
0.0379822
0.0393751
0.0409073
0.0425927
0.0444466
0.046486
0.0487292
0.0511969
0.0539112
0.056897
0.0601814
0.0637942
0.0677683
0.0719317
0.0759058
0.0795186
0.082803
0.0857888
0.0885031
0.0909708
0.093214
0.0952534
0.0971073
0.0987927
0.100325
0.101718
0.102984
0.104135
0.105182
0.106133
0.106998
0.107784
0.108499
0.109149
0.10974
0.110277
0.110765
0.111209
0.111612
0.111979
0.112312
0.112615
0.112891
0.113142
0.113369
0.113576
0.113765
0.113936
0.114091
0.114233
0.0254673
0.0256088
0.0257643
0.0259354
0.0261236
0.0263307
0.0265584
0.026809
0.0270845
0.0273877
0.0277211
0.0280879
0.0284914
0.0289352
0.0294234
0.0299604
0.0305512
0.031201
0.0319157
0.032702
0.0335669
0.0345182
0.0355648
0.0367159
0.0379822
0.0393751
0.0409073
0.0425927
0.0444466
0.046486
0.0487292
0.0511969
0.0539112
0.056897
0.0601814
0.0637942
0.0677683
0.0719317
0.0759058
0.0795186
0.082803
0.0857888
0.0885031
0.0909708
0.093214
0.0952534
0.0971073
0.0987927
0.100325
0.101718
0.102984
0.104135
0.105182
0.106133
0.106998
0.107784
0.108499
0.109149
0.10974
0.110277
0.110765
0.111209
0.111612
0.111979
0.112312
0.112615
0.112891
0.113142
0.113369
0.113576
0.113765
0.113936
0.114091
0.114233
0.0254673
0.0256088
0.0257643
0.0259354
0.0261236
0.0263307
0.0265584
0.026809
0.0270845
0.0273877
0.0277211
0.0280879
0.0284914
0.0289352
0.0294234
0.0299604
0.0305512
0.031201
0.0319157
0.032702
0.0335669
0.0345182
0.0355648
0.0367159
0.0379822
0.0393751
0.0409073
0.0425927
0.0444466
0.046486
0.0487292
0.0511969
0.0539112
0.056897
0.0601814
0.0637942
0.0677683
0.0719317
0.0759058
0.0795186
0.082803
0.0857888
0.0885031
0.0909708
0.093214
0.0952534
0.0971073
0.0987927
0.100325
0.101718
0.102984
0.104135
0.105182
0.106133
0.106998
0.107784
0.108499
0.109149
0.10974
0.110277
0.110765
0.111209
0.111612
0.111979
0.112312
0.112615
0.112891
0.113142
0.113369
0.113576
0.113765
0.113936
0.114091
0.114233
0.0254673
0.0256088
0.0257643
0.0259354
0.0261236
0.0263307
0.0265584
0.026809
0.0270845
0.0273877
0.0277211
0.0280879
0.0284914
0.0289352
0.0294234
0.0299604
0.0305512
0.031201
0.0319157
0.032702
0.0335669
0.0345182
0.0355648
0.0367159
0.0379822
0.0393751
0.0409073
0.0425927
0.0444466
0.046486
0.0487292
0.0511969
0.0539112
0.056897
0.0601814
0.0637942
0.0677683
0.0719317
0.0759058
0.0795186
0.082803
0.0857888
0.0885031
0.0909708
0.093214
0.0952534
0.0971073
0.0987927
0.100325
0.101718
0.102984
0.104135
0.105182
0.106133
0.106998
0.107784
0.108499
0.109149
0.10974
0.110277
0.110765
0.111209
0.111612
0.111979
0.112312
0.112615
0.112891
0.113142
0.113369
0.113576
0.113765
0.113936
0.114091
0.114233
0.0254673
0.0256088
0.0257643
0.0259354
0.0261236
0.0263307
0.0265584
0.026809
0.0270845
0.0273877
0.0277211
0.0280879
0.0284914
0.0289352
0.0294234
0.0299604
0.0305512
0.031201
0.0319157
0.032702
0.0335669
0.0345182
0.0355648
0.0367159
0.0379822
0.0393751
0.0409073
0.0425927
0.0444466
0.046486
0.0487292
0.0511969
0.0539112
0.056897
0.0601814
0.0637942
0.0677683
0.0719317
0.0759058
0.0795186
0.082803
0.0857888
0.0885031
0.0909708
0.093214
0.0952534
0.0971073
0.0987927
0.100325
0.101718
0.102984
0.104135
0.105182
0.106133
0.106998
0.107784
0.108499
0.109149
0.10974
0.110277
0.110765
0.111209
0.111612
0.111979
0.112312
0.112615
0.112891
0.113142
0.113369
0.113576
0.113765
0.113936
0.114091
0.114233
0.0254673
0.0256088
0.0257643
0.0259354
0.0261236
0.0263307
0.0265584
0.026809
0.0270845
0.0273877
0.0277211
0.0280879
0.0284914
0.0289352
0.0294234
0.0299604
0.0305512
0.031201
0.0319157
0.032702
0.0335669
0.0345182
0.0355648
0.0367159
0.0379822
0.0393751
0.0409073
0.0425927
0.0444466
0.046486
0.0487292
0.0511969
0.0539112
0.056897
0.0601814
0.0637942
0.0677683
0.0719317
0.0759058
0.0795186
0.082803
0.0857888
0.0885031
0.0909708
0.093214
0.0952534
0.0971073
0.0987927
0.100325
0.101718
0.102984
0.104135
0.105182
0.106133
0.106998
0.107784
0.108499
0.109149
0.10974
0.110277
0.110765
0.111209
0.111612
0.111979
0.112312
0.112615
0.112891
0.113142
0.113369
0.113576
0.113765
0.113936
0.114091
0.114233
0.0254673
0.0256088
0.0257643
0.0259354
0.0261236
0.0263307
0.0265584
0.026809
0.0270845
0.0273877
0.0277211
0.0280879
0.0284914
0.0289352
0.0294234
0.0299604
0.0305512
0.031201
0.0319157
0.032702
0.0335669
0.0345182
0.0355648
0.0367159
0.0379822
0.0393751
0.0409073
0.0425927
0.0444466
0.046486
0.0487292
0.0511969
0.0539112
0.056897
0.0601814
0.0637942
0.0677683
0.0719317
0.0759058
0.0795186
0.082803
0.0857888
0.0885031
0.0909708
0.093214
0.0952534
0.0971073
0.0987927
0.100325
0.101718
0.102984
0.104135
0.105182
0.106133
0.106998
0.107784
0.108499
0.109149
0.10974
0.110277
0.110765
0.111209
0.111612
0.111979
0.112312
0.112615
0.112891
0.113142
0.113369
0.113576
0.113765
0.113936
0.114091
0.114233
0.0254673
0.0256088
0.0257643
0.0259354
0.0261236
0.0263307
0.0265584
0.026809
0.0270845
0.0273877
0.0277211
0.0280879
0.0284914
0.0289352
0.0294234
0.0299604
0.0305512
0.031201
0.0319157
0.032702
0.0335669
0.0345182
0.0355648
0.0367159
0.0379822
0.0393751
0.0409073
0.0425927
0.0444466
0.046486
0.0487292
0.0511969
0.0539112
0.056897
0.0601814
0.0637942
0.0677683
0.0719317
0.0759058
0.0795186
0.082803
0.0857888
0.0885031
0.0909708
0.093214
0.0952534
0.0971073
0.0987927
0.100325
0.101718
0.102984
0.104135
0.105182
0.106133
0.106998
0.107784
0.108499
0.109149
0.10974
0.110277
0.110765
0.111209
0.111612
0.111979
0.112312
0.112615
0.112891
0.113142
0.113369
0.113576
0.113765
0.113936
0.114091
0.114233
0.0254673
0.0256088
0.0257643
0.0259354
0.0261236
0.0263307
0.0265584
0.026809
0.0270845
0.0273877
0.0277211
0.0280879
0.0284914
0.0289352
0.0294234
0.0299604
0.0305512
0.031201
0.0319157
0.032702
0.0335669
0.0345182
0.0355648
0.0367159
0.0379822
0.0393751
0.0409073
0.0425927
0.0444466
0.046486
0.0487292
0.0511969
0.0539112
0.056897
0.0601814
0.0637942
0.0677683
0.0719317
0.0759058
0.0795186
0.082803
0.0857888
0.0885031
0.0909708
0.093214
0.0952534
0.0971073
0.0987927
0.100325
0.101718
0.102984
0.104135
0.105182
0.106133
0.106998
0.107784
0.108499
0.109149
0.10974
0.110277
0.110765
0.111209
0.111612
0.111979
0.112312
0.112615
0.112891
0.113142
0.113369
0.113576
0.113765
0.113936
0.114091
0.114233
0.0254673
0.0256088
0.0257643
0.0259354
0.0261236
0.0263307
0.0265584
0.026809
0.0270845
0.0273877
0.0277211
0.0280879
0.0284914
0.0289352
0.0294234
0.0299604
0.0305512
0.031201
0.0319157
0.032702
0.0335669
0.0345182
0.0355648
0.0367159
0.0379822
0.0393751
0.0409073
0.0425927
0.0444466
0.046486
0.0487292
0.0511969
0.0539112
0.056897
0.0601814
0.0637942
0.0677683
0.0719317
0.0759058
0.0795186
0.082803
0.0857888
0.0885031
0.0909708
0.093214
0.0952534
0.0971073
0.0987927
0.100325
0.101718
0.102984
0.104135
0.105182
0.106133
0.106998
0.107784
0.108499
0.109149
0.10974
0.110277
0.110765
0.111209
0.111612
0.111979
0.112312
0.112615
0.112891
0.113142
0.113369
0.113576
0.113765
0.113936
0.114091
0.114233
0.0254673
0.0256088
0.0257643
0.0259354
0.0261236
0.0263307
0.0265584
0.026809
0.0270845
0.0273877
0.0277211
0.0280879
0.0284914
0.0289352
0.0294234
0.0299604
0.0305512
0.031201
0.0319157
0.032702
0.0335669
0.0345182
0.0355648
0.0367159
0.0379822
0.0393751
0.0409073
0.0425927
0.0444466
0.046486
0.0487292
0.0511969
0.0539112
0.056897
0.0601814
0.0637942
0.0677683
0.0719317
0.0759058
0.0795186
0.082803
0.0857888
0.0885031
0.0909708
0.093214
0.0952534
0.0971073
0.0987927
0.100325
0.101718
0.102984
0.104135
0.105182
0.106133
0.106998
0.107784
0.108499
0.109149
0.10974
0.110277
0.110765
0.111209
0.111612
0.111979
0.112312
0.112615
0.112891
0.113142
0.113369
0.113576
0.113765
0.113936
0.114091
0.114233
0.0254673
0.0256088
0.0257643
0.0259354
0.0261236
0.0263307
0.0265584
0.026809
0.0270845
0.0273877
0.0277211
0.0280879
0.0284914
0.0289352
0.0294234
0.0299604
0.0305512
0.031201
0.0319157
0.032702
0.0335669
0.0345182
0.0355648
0.0367159
0.0379822
0.0393751
0.0409073
0.0425927
0.0444466
0.046486
0.0487292
0.0511969
0.0539112
0.056897
0.0601814
0.0637942
0.0677683
0.0719317
0.0759058
0.0795186
0.082803
0.0857888
0.0885031
0.0909708
0.093214
0.0952534
0.0971073
0.0987927
0.100325
0.101718
0.102984
0.104135
0.105182
0.106133
0.106998
0.107784
0.108499
0.109149
0.10974
0.110277
0.110765
0.111209
0.111612
0.111979
0.112312
0.112615
0.112891
0.113142
0.113369
0.113576
0.113765
0.113936
0.114091
0.114233
0.0254673
0.0256088
0.0257643
0.0259354
0.0261236
0.0263307
0.0265584
0.026809
0.0270845
0.0273877
0.0277211
0.0280879
0.0284914
0.0289352
0.0294234
0.0299604
0.0305512
0.031201
0.0319157
0.032702
0.0335669
0.0345182
0.0355648
0.0367159
0.0379822
0.0393751
0.0409073
0.0425927
0.0444466
0.046486
0.0487292
0.0511969
0.0539112
0.056897
0.0601814
0.0637942
0.0677683
0.0719317
0.0759058
0.0795186
0.082803
0.0857888
0.0885031
0.0909708
0.093214
0.0952534
0.0971073
0.0987927
0.100325
0.101718
0.102984
0.104135
0.105182
0.106133
0.106998
0.107784
0.108499
0.109149
0.10974
0.110277
0.110765
0.111209
0.111612
0.111979
0.112312
0.112615
0.112891
0.113142
0.113369
0.113576
0.113765
0.113936
0.114091
0.114233
0.0254673
0.0256088
0.0257643
0.0259354
0.0261236
0.0263307
0.0265584
0.026809
0.0270845
0.0273877
0.0277211
0.0280879
0.0284914
0.0289352
0.0294234
0.0299604
0.0305512
0.031201
0.0319157
0.032702
0.0335669
0.0345182
0.0355648
0.0367159
0.0379822
0.0393751
0.0409073
0.0425927
0.0444466
0.046486
0.0487292
0.0511969
0.0539112
0.056897
0.0601814
0.0637942
0.0677683
0.0719317
0.0759058
0.0795186
0.082803
0.0857888
0.0885031
0.0909708
0.093214
0.0952534
0.0971073
0.0987927
0.100325
0.101718
0.102984
0.104135
0.105182
0.106133
0.106998
0.107784
0.108499
0.109149
0.10974
0.110277
0.110765
0.111209
0.111612
0.111979
0.112312
0.112615
0.112891
0.113142
0.113369
0.113576
0.113765
0.113936
0.114091
0.114233
0.0254673
0.0256088
0.0257643
0.0259354
0.0261236
0.0263307
0.0265584
0.026809
0.0270845
0.0273877
0.0277211
0.0280879
0.0284914
0.0289352
0.0294234
0.0299604
0.0305512
0.031201
0.0319157
0.032702
0.0335669
0.0345182
0.0355648
0.0367159
0.0379822
0.0393751
0.0409073
0.0425927
0.0444466
0.046486
0.0487292
0.0511969
0.0539112
0.056897
0.0601814
0.0637942
0.0677683
0.0719317
0.0759058
0.0795186
0.082803
0.0857888
0.0885031
0.0909708
0.093214
0.0952534
0.0971073
0.0987927
0.100325
0.101718
0.102984
0.104135
0.105182
0.106133
0.106998
0.107784
0.108499
0.109149
0.10974
0.110277
0.110765
0.111209
0.111612
0.111979
0.112312
0.112615
0.112891
0.113142
0.113369
0.113576
0.113765
0.113936
0.114091
0.114233
0.0254673
0.0256088
0.0257643
0.0259354
0.0261236
0.0263307
0.0265584
0.026809
0.0270845
0.0273877
0.0277211
0.0280879
0.0284914
0.0289352
0.0294234
0.0299604
0.0305512
0.031201
0.0319157
0.032702
0.0335669
0.0345182
0.0355648
0.0367159
0.0379822
0.0393751
0.0409073
0.0425927
0.0444466
0.046486
0.0487292
0.0511969
0.0539112
0.056897
0.0601814
0.0637942
0.0677683
0.0719317
0.0759058
0.0795186
0.082803
0.0857888
0.0885031
0.0909708
0.093214
0.0952534
0.0971073
0.0987927
0.100325
0.101718
0.102984
0.104135
0.105182
0.106133
0.106998
0.107784
0.108499
0.109149
0.10974
0.110277
0.110765
0.111209
0.111612
0.111979
0.112312
0.112615
0.112891
0.113142
0.113369
0.113576
0.113765
0.113936
0.114091
0.114233
0.0254673
0.0256088
0.0257643
0.0259354
0.0261236
0.0263307
0.0265584
0.026809
0.0270845
0.0273877
0.0277211
0.0280879
0.0284914
0.0289352
0.0294234
0.0299604
0.0305512
0.031201
0.0319157
0.032702
0.0335669
0.0345182
0.0355648
0.0367159
0.0379822
0.0393751
0.0409073
0.0425927
0.0444466
0.046486
0.0487292
0.0511969
0.0539112
0.056897
0.0601814
0.0637942
0.0677683
0.0719317
0.0759058
0.0795186
0.082803
0.0857888
0.0885031
0.0909708
0.093214
0.0952534
0.0971073
0.0987927
0.100325
0.101718
0.102984
0.104135
0.105182
0.106133
0.106998
0.107784
0.108499
0.109149
0.10974
0.110277
0.110765
0.111209
0.111612
0.111979
0.112312
0.112615
0.112891
0.113142
0.113369
0.113576
0.113765
0.113936
0.114091
0.114233
0.0254673
0.0256088
0.0257643
0.0259354
0.0261236
0.0263307
0.0265584
0.026809
0.0270845
0.0273877
0.0277211
0.0280879
0.0284914
0.0289352
0.0294234
0.0299604
0.0305512
0.031201
0.0319157
0.032702
0.0335669
0.0345182
0.0355648
0.0367159
0.0379822
0.0393751
0.0409073
0.0425927
0.0444466
0.046486
0.0487292
0.0511969
0.0539112
0.056897
0.0601814
0.0637942
0.0677683
0.0719317
0.0759058
0.0795186
0.082803
0.0857888
0.0885031
0.0909708
0.093214
0.0952534
0.0971073
0.0987927
0.100325
0.101718
0.102984
0.104135
0.105182
0.106133
0.106998
0.107784
0.108499
0.109149
0.10974
0.110277
0.110765
0.111209
0.111612
0.111979
0.112312
0.112615
0.112891
0.113142
0.113369
0.113576
0.113765
0.113936
0.114091
0.114233
0.0254673
0.0256088
0.0257643
0.0259354
0.0261236
0.0263307
0.0265584
0.026809
0.0270845
0.0273877
0.0277211
0.0280879
0.0284914
0.0289352
0.0294234
0.0299604
0.0305512
0.031201
0.0319157
0.032702
0.0335669
0.0345182
0.0355648
0.0367159
0.0379822
0.0393751
0.0409073
0.0425927
0.0444466
0.046486
0.0487292
0.0511969
0.0539112
0.056897
0.0601814
0.0637942
0.0677683
0.0719317
0.0759058
0.0795186
0.082803
0.0857888
0.0885031
0.0909708
0.093214
0.0952534
0.0971073
0.0987927
0.100325
0.101718
0.102984
0.104135
0.105182
0.106133
0.106998
0.107784
0.108499
0.109149
0.10974
0.110277
0.110765
0.111209
0.111612
0.111979
0.112312
0.112615
0.112891
0.113142
0.113369
0.113576
0.113765
0.113936
0.114091
0.114233
0.0254673
0.0256088
0.0257643
0.0259354
0.0261236
0.0263307
0.0265584
0.026809
0.0270845
0.0273877
0.0277211
0.0280879
0.0284914
0.0289352
0.0294234
0.0299604
0.0305512
0.031201
0.0319157
0.032702
0.0335669
0.0345182
0.0355648
0.0367159
0.0379822
0.0393751
0.0409073
0.0425927
0.0444466
0.046486
0.0487292
0.0511969
0.0539112
0.056897
0.0601814
0.0637942
0.0677683
0.0719317
0.0759058
0.0795186
0.082803
0.0857888
0.0885031
0.0909708
0.093214
0.0952534
0.0971073
0.0987927
0.100325
0.101718
0.102984
0.104135
0.105182
0.106133
0.106998
0.107784
0.108499
0.109149
0.10974
0.110277
0.110765
0.111209
0.111612
0.111979
0.112312
0.112615
0.112891
0.113142
0.113369
0.113576
0.113765
0.113936
0.114091
0.114233
0.0254673
0.0256088
0.0257643
0.0259354
0.0261236
0.0263307
0.0265584
0.026809
0.0270845
0.0273877
0.0277211
0.0280879
0.0284914
0.0289352
0.0294234
0.0299604
0.0305512
0.031201
0.0319157
0.032702
0.0335669
0.0345182
0.0355648
0.0367159
0.0379822
0.0393751
0.0409073
0.0425927
0.0444466
0.046486
0.0487292
0.0511969
0.0539112
0.056897
0.0601814
0.0637942
0.0677683
0.0719317
0.0759058
0.0795186
0.082803
0.0857888
0.0885031
0.0909708
0.093214
0.0952534
0.0971073
0.0987927
0.100325
0.101718
0.102984
0.104135
0.105182
0.106133
0.106998
0.107784
0.108499
0.109149
0.10974
0.110277
0.110765
0.111209
0.111612
0.111979
0.112312
0.112615
0.112891
0.113142
0.113369
0.113576
0.113765
0.113936
0.114091
0.114233
0.0254673
0.0256088
0.0257643
0.0259354
0.0261236
0.0263307
0.0265584
0.026809
0.0270845
0.0273877
0.0277211
0.0280879
0.0284914
0.0289352
0.0294234
0.0299604
0.0305512
0.031201
0.0319157
0.032702
0.0335669
0.0345182
0.0355648
0.0367159
0.0379822
0.0393751
0.0409073
0.0425927
0.0444466
0.046486
0.0487292
0.0511969
0.0539112
0.056897
0.0601814
0.0637942
0.0677683
0.0719317
0.0759058
0.0795186
0.082803
0.0857888
0.0885031
0.0909708
0.093214
0.0952534
0.0971073
0.0987927
0.100325
0.101718
0.102984
0.104135
0.105182
0.106133
0.106998
0.107784
0.108499
0.109149
0.10974
0.110277
0.110765
0.111209
0.111612
0.111979
0.112312
0.112615
0.112891
0.113142
0.113369
0.113576
0.113765
0.113936
0.114091
0.114233
0.0254673
0.0256088
0.0257643
0.0259354
0.0261236
0.0263307
0.0265584
0.026809
0.0270845
0.0273877
0.0277211
0.0280879
0.0284914
0.0289352
0.0294234
0.0299604
0.0305512
0.031201
0.0319157
0.032702
0.0335669
0.0345182
0.0355648
0.0367159
0.0379822
0.0393751
0.0409073
0.0425927
0.0444466
0.046486
0.0487292
0.0511969
0.0539112
0.056897
0.0601814
0.0637942
0.0677683
0.0719317
0.0759058
0.0795186
0.082803
0.0857888
0.0885031
0.0909708
0.093214
0.0952534
0.0971073
0.0987927
0.100325
0.101718
0.102984
0.104135
0.105182
0.106133
0.106998
0.107784
0.108499
0.109149
0.10974
0.110277
0.110765
0.111209
0.111612
0.111979
0.112312
0.112615
0.112891
0.113142
0.113369
0.113576
0.113765
0.113936
0.114091
0.114233
0.0254673
0.0256088
0.0257643
0.0259354
0.0261236
0.0263307
0.0265584
0.026809
0.0270845
0.0273877
0.0277211
0.0280879
0.0284914
0.0289352
0.0294234
0.0299604
0.0305512
0.031201
0.0319157
0.032702
0.0335669
0.0345182
0.0355648
0.0367159
0.0379822
0.0393751
0.0409073
0.0425927
0.0444466
0.046486
0.0487292
0.0511969
0.0539112
0.056897
0.0601814
0.0637942
0.0677683
0.0719317
0.0759058
0.0795186
0.082803
0.0857888
0.0885031
0.0909708
0.093214
0.0952534
0.0971073
0.0987927
0.100325
0.101718
0.102984
0.104135
0.105182
0.106133
0.106998
0.107784
0.108499
0.109149
0.10974
0.110277
0.110765
0.111209
0.111612
0.111979
0.112312
0.112615
0.112891
0.113142
0.113369
0.113576
0.113765
0.113936
0.114091
0.114233
0.0254673
0.0256088
0.0257643
0.0259354
0.0261236
0.0263307
0.0265584
0.026809
0.0270845
0.0273877
0.0277211
0.0280879
0.0284914
0.0289352
0.0294234
0.0299604
0.0305512
0.031201
0.0319157
0.032702
0.0335669
0.0345182
0.0355648
0.0367159
0.0379822
0.0393751
0.0409073
0.0425927
0.0444466
0.046486
0.0487292
0.0511969
0.0539112
0.056897
0.0601814
0.0637942
0.0677683
0.0719317
0.0759058
0.0795186
0.082803
0.0857888
0.0885031
0.0909708
0.093214
0.0952534
0.0971073
0.0987927
0.100325
0.101718
0.102984
0.104135
0.105182
0.106133
0.106998
0.107784
0.108499
0.109149
0.10974
0.110277
0.110765
0.111209
0.111612
0.111979
0.112312
0.112615
0.112891
0.113142
0.113369
0.113576
0.113765
0.113936
0.114091
0.114233
0.0254673
0.0256088
0.0257643
0.0259354
0.0261236
0.0263307
0.0265584
0.026809
0.0270845
0.0273877
0.0277211
0.0280879
0.0284914
0.0289352
0.0294234
0.0299604
0.0305512
0.031201
0.0319157