/*--------------------------------*- C++ -*----------------------------------*\
| =========                 |                                                 |
| \\      /  F ield         | OpenFOAM: The Open Source CFD Toolbox           |
|  \\    /   O peration     | Version:  5.x                                   |
|   \\  /    A nd           | Web:      www.OpenFOAM.org                      |
|    \\/     M anipulation  |                                                 |
\*---------------------------------------------------------------------------*/
FoamFile
{
    version     2.0;
    format      ascii;
    class       volScalarField;
    location    "0";
    object      Cx;
}
// * * * * * * * * * * * * * * * * * * * * * * * * * * * * * * * * * * * * * //

dimensions      [0 1 0 0 0 0 0];

internalField   nonuniform List<scalar> 
130184
(
-1.64973
-1.64973
-1.64973
-1.64973
-1.64973
-1.64973
-1.64973
-1.64973
-1.64973
-1.64973
-1.64973
-1.64973
-1.64973
-1.64973
-1.64973
-1.64973
-1.64973
-1.64973
-1.64973
-1.64973
-1.64973
-1.64973
-1.64973
-1.64973
-1.64973
-1.64973
-1.64973
-1.64973
-1.64973
-1.64973
-1.64973
-1.64973
-1.64973
-1.64973
-1.64973
-1.64973
-1.64973
-1.64973
-1.64973
-1.64973
-1.64973
-1.64973
-1.64973
-1.64973
-1.64973
-1.64973
-1.64973
-1.64973
-1.64973
-1.64973
-1.64973
-1.64973
-1.64973
-1.64973
-1.64973
-1.64973
-1.64973
-1.64973
-1.64973
-1.64973
-1.64973
-1.64973
-1.64973
-1.64973
-1.64973
-1.64973
-1.64973
-1.64973
-1.64973
-1.64973
-1.64973
-1.64973
-1.64973
-1.64973
-1.64973
-1.64973
-1.64973
-1.64973
-1.64719
-1.64719
-1.64719
-1.64719
-1.64719
-1.64719
-1.64719
-1.64719
-1.64719
-1.64719
-1.64719
-1.64719
-1.64719
-1.64719
-1.64719
-1.64719
-1.64719
-1.64719
-1.64719
-1.64719
-1.64719
-1.64719
-1.64719
-1.64719
-1.64719
-1.64719
-1.64719
-1.64719
-1.64719
-1.64719
-1.64719
-1.64719
-1.64719
-1.64719
-1.64719
-1.64719
-1.64719
-1.64719
-1.64719
-1.64719
-1.64719
-1.64719
-1.64719
-1.64719
-1.64719
-1.64719
-1.64719
-1.64719
-1.64719
-1.64719
-1.64719
-1.64719
-1.64719
-1.64719
-1.64719
-1.64719
-1.64719
-1.64719
-1.64719
-1.64719
-1.64719
-1.64719
-1.64719
-1.64719
-1.64719
-1.64719
-1.64719
-1.64719
-1.64719
-1.64719
-1.64719
-1.64719
-1.64719
-1.64719
-1.64719
-1.64719
-1.64719
-1.64719
-1.64465
-1.64465
-1.64465
-1.64465
-1.64465
-1.64465
-1.64465
-1.64465
-1.64465
-1.64465
-1.64465
-1.64465
-1.64465
-1.64465
-1.64465
-1.64465
-1.64465
-1.64465
-1.64465
-1.64465
-1.64465
-1.64465
-1.64465
-1.64465
-1.64465
-1.64465
-1.64465
-1.64465
-1.64465
-1.64465
-1.64465
-1.64465
-1.64465
-1.64465
-1.64465
-1.64465
-1.64465
-1.64465
-1.64465
-1.64465
-1.64465
-1.64465
-1.64465
-1.64465
-1.64465
-1.64465
-1.64465
-1.64465
-1.64465
-1.64465
-1.64465
-1.64465
-1.64465
-1.64465
-1.64465
-1.64465
-1.64465
-1.64465
-1.64465
-1.64465
-1.64465
-1.64465
-1.64465
-1.64465
-1.64465
-1.64465
-1.64465
-1.64465
-1.64465
-1.64465
-1.64465
-1.64465
-1.64465
-1.64465
-1.64465
-1.64465
-1.64465
-1.64465
-1.64211
-1.64211
-1.64211
-1.64211
-1.64211
-1.64211
-1.64211
-1.64211
-1.64211
-1.64211
-1.64211
-1.64211
-1.64211
-1.64211
-1.64211
-1.64211
-1.64211
-1.64211
-1.64211
-1.64211
-1.64211
-1.64211
-1.64211
-1.64211
-1.64211
-1.64211
-1.64211
-1.64211
-1.64211
-1.64211
-1.64211
-1.64211
-1.64211
-1.64211
-1.64211
-1.64211
-1.64211
-1.64211
-1.64211
-1.64211
-1.64211
-1.64211
-1.64211
-1.64211
-1.64211
-1.64211
-1.64211
-1.64211
-1.64211
-1.64211
-1.64211
-1.64211
-1.64211
-1.64211
-1.64211
-1.64211
-1.64211
-1.64211
-1.64211
-1.64211
-1.64211
-1.64211
-1.64211
-1.64211
-1.64211
-1.64211
-1.64211
-1.64211
-1.64211
-1.64211
-1.64211
-1.64211
-1.64211
-1.64211
-1.64211
-1.64211
-1.64211
-1.64211
-1.63957
-1.63957
-1.63957
-1.63957
-1.63957
-1.63957
-1.63957
-1.63957
-1.63957
-1.63957
-1.63957
-1.63957
-1.63957
-1.63957
-1.63957
-1.63957
-1.63957
-1.63957
-1.63957
-1.63957
-1.63957
-1.63957
-1.63957
-1.63957
-1.63957
-1.63957
-1.63957
-1.63957
-1.63957
-1.63957
-1.63957
-1.63957
-1.63957
-1.63957
-1.63957
-1.63957
-1.63957
-1.63957
-1.63957
-1.63957
-1.63957
-1.63957
-1.63957
-1.63957
-1.63957
-1.63957
-1.63957
-1.63957
-1.63957
-1.63957
-1.63957
-1.63957
-1.63957
-1.63957
-1.63957
-1.63957
-1.63957
-1.63957
-1.63957
-1.63957
-1.63957
-1.63957
-1.63957
-1.63957
-1.63957
-1.63957
-1.63957
-1.63957
-1.63957
-1.63957
-1.63957
-1.63957
-1.63957
-1.63957
-1.63957
-1.63957
-1.63957
-1.63957
-1.63703
-1.63703
-1.63703
-1.63703
-1.63703
-1.63703
-1.63703
-1.63703
-1.63703
-1.63703
-1.63703
-1.63703
-1.63703
-1.63703
-1.63703
-1.63703
-1.63703
-1.63703
-1.63703
-1.63703
-1.63703
-1.63703
-1.63703
-1.63703
-1.63703
-1.63703
-1.63703
-1.63703
-1.63703
-1.63703
-1.63703
-1.63703
-1.63703
-1.63703
-1.63703
-1.63703
-1.63703
-1.63703
-1.63703
-1.63703
-1.63703
-1.63703
-1.63703
-1.63703
-1.63703
-1.63703
-1.63703
-1.63703
-1.63703
-1.63703
-1.63703
-1.63703
-1.63703
-1.63703
-1.63703
-1.63703
-1.63703
-1.63703
-1.63703
-1.63703
-1.63703
-1.63703
-1.63703
-1.63703
-1.63703
-1.63703
-1.63703
-1.63703
-1.63703
-1.63703
-1.63703
-1.63703
-1.63703
-1.63703
-1.63703
-1.63703
-1.63703
-1.63703
-1.63449
-1.63449
-1.63449
-1.63449
-1.63449
-1.63449
-1.63449
-1.63449
-1.63449
-1.63449
-1.63449
-1.63449
-1.63449
-1.63449
-1.63449
-1.63449
-1.63449
-1.63449
-1.63449
-1.63449
-1.63449
-1.63449
-1.63449
-1.63449
-1.63449
-1.63449
-1.63449
-1.63449
-1.63449
-1.63449
-1.63449
-1.63449
-1.63449
-1.63449
-1.63449
-1.63449
-1.63449
-1.63449
-1.63449
-1.63449
-1.63449
-1.63449
-1.63449
-1.63449
-1.63449
-1.63449
-1.63449
-1.63449
-1.63449
-1.63449
-1.63449
-1.63449
-1.63449
-1.63449
-1.63449
-1.63449
-1.63449
-1.63449
-1.63449
-1.63449
-1.63449
-1.63449
-1.63449
-1.63449
-1.63449
-1.63449
-1.63449
-1.63449
-1.63449
-1.63449
-1.63449
-1.63449
-1.63449
-1.63449
-1.63449
-1.63449
-1.63449
-1.63449
-1.63195
-1.63195
-1.63195
-1.63195
-1.63195
-1.63195
-1.63195
-1.63195
-1.63195
-1.63195
-1.63195
-1.63195
-1.63195
-1.63195
-1.63195
-1.63195
-1.63195
-1.63195
-1.63195
-1.63195
-1.63195
-1.63195
-1.63195
-1.63195
-1.63195
-1.63195
-1.63195
-1.63195
-1.63195
-1.63195
-1.63195
-1.63195
-1.63195
-1.63195
-1.63195
-1.63195
-1.63195
-1.63195
-1.63195
-1.63195
-1.63195
-1.63195
-1.63195
-1.63195
-1.63195
-1.63195
-1.63195
-1.63195
-1.63195
-1.63195
-1.63195
-1.63195
-1.63195
-1.63195
-1.63195
-1.63195
-1.63195
-1.63195
-1.63195
-1.63195
-1.63195
-1.63195
-1.63195
-1.63195
-1.63195
-1.63195
-1.63195
-1.63195
-1.63195
-1.63195
-1.63195
-1.63195
-1.63195
-1.63195
-1.63195
-1.63195
-1.63195
-1.63195
-1.62941
-1.62941
-1.62941
-1.62941
-1.62941
-1.62941
-1.62941
-1.62941
-1.62941
-1.62941
-1.62941
-1.62941
-1.62941
-1.62941
-1.62941
-1.62941
-1.62941
-1.62941
-1.62941
-1.62941
-1.62941
-1.62941
-1.62941
-1.62941
-1.62941
-1.62941
-1.62941
-1.62941
-1.62941
-1.62941
-1.62941
-1.62941
-1.62941
-1.62941
-1.62941
-1.62941
-1.62941
-1.62941
-1.62941
-1.62941
-1.62941
-1.62941
-1.62941
-1.62941
-1.62941
-1.62941
-1.62941
-1.62941
-1.62941
-1.62941
-1.62941
-1.62941
-1.62941
-1.62941
-1.62941
-1.62941
-1.62941
-1.62941
-1.62941
-1.62941
-1.62941
-1.62941
-1.62941
-1.62941
-1.62941
-1.62941
-1.62941
-1.62941
-1.62941
-1.62941
-1.62941
-1.62941
-1.62941
-1.62941
-1.62941
-1.62941
-1.62941
-1.62941
-1.62687
-1.62687
-1.62687
-1.62687
-1.62687
-1.62687
-1.62687
-1.62687
-1.62687
-1.62687
-1.62687
-1.62687
-1.62687
-1.62687
-1.62687
-1.62687
-1.62687
-1.62687
-1.62687
-1.62687
-1.62687
-1.62687
-1.62687
-1.62687
-1.62687
-1.62687
-1.62687
-1.62687
-1.62687
-1.62687
-1.62687
-1.62687
-1.62687
-1.62687
-1.62687
-1.62687
-1.62687
-1.62687
-1.62687
-1.62687
-1.62687
-1.62687
-1.62687
-1.62687
-1.62687
-1.62687
-1.62687
-1.62687
-1.62687
-1.62687
-1.62687
-1.62687
-1.62687
-1.62687
-1.62687
-1.62687
-1.62687
-1.62687
-1.62687
-1.62687
-1.62687
-1.62687
-1.62687
-1.62687
-1.62687
-1.62687
-1.62687
-1.62687
-1.62687
-1.62687
-1.62687
-1.62687
-1.62687
-1.62687
-1.62687
-1.62687
-1.62687
-1.62687
-1.62433
-1.62433
-1.62433
-1.62433
-1.62433
-1.62433
-1.62433
-1.62433
-1.62433
-1.62433
-1.62433
-1.62433
-1.62433
-1.62433
-1.62433
-1.62433
-1.62433
-1.62433
-1.62433
-1.62433
-1.62433
-1.62433
-1.62433
-1.62433
-1.62433
-1.62433
-1.62433
-1.62433
-1.62433
-1.62433
-1.62433
-1.62433
-1.62433
-1.62433
-1.62433
-1.62433
-1.62433
-1.62433
-1.62433
-1.62433
-1.62433
-1.62433
-1.62433
-1.62433
-1.62433
-1.62433
-1.62433
-1.62433
-1.62433
-1.62433
-1.62433
-1.62433
-1.62433
-1.62433
-1.62433
-1.62433
-1.62433
-1.62433
-1.62433
-1.62433
-1.62433
-1.62433
-1.62433
-1.62433
-1.62433
-1.62433
-1.62433
-1.62433
-1.62433
-1.62433
-1.62433
-1.62433
-1.62433
-1.62433
-1.62433
-1.62433
-1.62433
-1.62433
-1.62179
-1.62179
-1.62179
-1.62179
-1.62179
-1.62179
-1.62179
-1.62179
-1.62179
-1.62179
-1.62179
-1.62179
-1.62179
-1.62179
-1.62179
-1.62179
-1.62179
-1.62179
-1.62179
-1.62179
-1.62179
-1.62179
-1.62179
-1.62179
-1.62179
-1.62179
-1.62179
-1.62179
-1.62179
-1.62179
-1.62179
-1.62179
-1.62179
-1.62179
-1.62179
-1.62179
-1.62179
-1.62179
-1.62179
-1.62179
-1.62179
-1.62179
-1.62179
-1.62179
-1.62179
-1.62179
-1.62179
-1.62179
-1.62179
-1.62179
-1.62179
-1.62179
-1.62179
-1.62179
-1.62179
-1.62179
-1.62179
-1.62179
-1.62179
-1.62179
-1.62179
-1.62179
-1.62179
-1.62179
-1.62179
-1.62179
-1.62179
-1.62179
-1.62179
-1.62179
-1.62179
-1.62179
-1.62179
-1.62179
-1.62179
-1.62179
-1.62179
-1.62179
-1.61925
-1.61925
-1.61925
-1.61925
-1.61925
-1.61925
-1.61925
-1.61925
-1.61925
-1.61925
-1.61925
-1.61925
-1.61925
-1.61925
-1.61925
-1.61925
-1.61925
-1.61925
-1.61925
-1.61925
-1.61925
-1.61925
-1.61925
-1.61925
-1.61925
-1.61925
-1.61925
-1.61925
-1.61925
-1.61925
-1.61925
-1.61925
-1.61925
-1.61925
-1.61925
-1.61925
-1.61925
-1.61925
-1.61925
-1.61925
-1.61925
-1.61925
-1.61925
-1.61925
-1.61925
-1.61925
-1.61925
-1.61925
-1.61925
-1.61925
-1.61925
-1.61925
-1.61925
-1.61925
-1.61925
-1.61925
-1.61925
-1.61925
-1.61925
-1.61925
-1.61925
-1.61925
-1.61925
-1.61925
-1.61925
-1.61925
-1.61925
-1.61925
-1.61925
-1.61925
-1.61925
-1.61925
-1.61925
-1.61925
-1.61925
-1.61925
-1.61925
-1.61925
-1.61671
-1.61671
-1.61671
-1.61671
-1.61671
-1.61671
-1.61671
-1.61671
-1.61671
-1.61671
-1.61671
-1.61671
-1.61671
-1.61671
-1.61671
-1.61671
-1.61671
-1.61671
-1.61671
-1.61671
-1.61671
-1.61671
-1.61671
-1.61671
-1.61671
-1.61671
-1.61671
-1.61671
-1.61671
-1.61671
-1.61671
-1.61671
-1.61671
-1.61671
-1.61671
-1.61671
-1.61671
-1.61671
-1.61671
-1.61671
-1.61671
-1.61671
-1.61671
-1.61671
-1.61671
-1.61671
-1.61671
-1.61671
-1.61671
-1.61671
-1.61671
-1.61671
-1.61671
-1.61671
-1.61671
-1.61671
-1.61671
-1.61671
-1.61671
-1.61671
-1.61671
-1.61671
-1.61671
-1.61671
-1.61671
-1.61671
-1.61671
-1.61671
-1.61671
-1.61671
-1.61671
-1.61671
-1.61671
-1.61671
-1.61671
-1.61671
-1.61671
-1.61671
-1.61417
-1.61417
-1.61417
-1.61417
-1.61417
-1.61417
-1.61417
-1.61417
-1.61417
-1.61417
-1.61417
-1.61417
-1.61417
-1.61417
-1.61417
-1.61417
-1.61417
-1.61417
-1.61417
-1.61417
-1.61417
-1.61417
-1.61417
-1.61417
-1.61417
-1.61417
-1.61417
-1.61417
-1.61417
-1.61417
-1.61417
-1.61417
-1.61417
-1.61417
-1.61417
-1.61417
-1.61417
-1.61417
-1.61417
-1.61417
-1.61417
-1.61417
-1.61417
-1.61417
-1.61417
-1.61417
-1.61417
-1.61417
-1.61417
-1.61417
-1.61417
-1.61417
-1.61417
-1.61417
-1.61417
-1.61417
-1.61417
-1.61417
-1.61417
-1.61417
-1.61417
-1.61417
-1.61417
-1.61417
-1.61417
-1.61417
-1.61417
-1.61417
-1.61417
-1.61417
-1.61417
-1.61417
-1.61417
-1.61417
-1.61417
-1.61417
-1.61417
-1.61417
-1.61163
-1.61163
-1.61163
-1.61163
-1.61163
-1.61163
-1.61163
-1.61163
-1.61163
-1.61163
-1.61163
-1.61163
-1.61163
-1.61163
-1.61163
-1.61163
-1.61163
-1.61163
-1.61163
-1.61163
-1.61163
-1.61163
-1.61163
-1.61163
-1.61163
-1.61163
-1.61163
-1.61163
-1.61163
-1.61163
-1.61163
-1.61163
-1.61163
-1.61163
-1.61163
-1.61163
-1.61163
-1.61163
-1.61163
-1.61163
-1.61163
-1.61163
-1.61163
-1.61163
-1.61163
-1.61163
-1.61163
-1.61163
-1.61163
-1.61163
-1.61163
-1.61163
-1.61163
-1.61163
-1.61163
-1.61163
-1.61163
-1.61163
-1.61163
-1.61163
-1.61163
-1.61163
-1.61163
-1.61163
-1.61163
-1.61163
-1.61163
-1.61163
-1.61163
-1.61163
-1.61163
-1.61163
-1.61163
-1.61163
-1.61163
-1.61163
-1.61163
-1.61163
-1.60909
-1.60909
-1.60909
-1.60909
-1.60909
-1.60909
-1.60909
-1.60909
-1.60909
-1.60909
-1.60909
-1.60909
-1.60909
-1.60909
-1.60909
-1.60909
-1.60909
-1.60909
-1.60909
-1.60909
-1.60909
-1.60909
-1.60909
-1.60909
-1.60909
-1.60909
-1.60909
-1.60909
-1.60909
-1.60909
-1.60909
-1.60909
-1.60909
-1.60909
-1.60909
-1.60909
-1.60909
-1.60909
-1.60909
-1.60909
-1.60909
-1.60909
-1.60909
-1.60909
-1.60909
-1.60909
-1.60909
-1.60909
-1.60909
-1.60909
-1.60909
-1.60909
-1.60909
-1.60909
-1.60909
-1.60909
-1.60909
-1.60909
-1.60909
-1.60909
-1.60909
-1.60909
-1.60909
-1.60909
-1.60909
-1.60909
-1.60909
-1.60909
-1.60909
-1.60909
-1.60909
-1.60909
-1.60909
-1.60909
-1.60909
-1.60909
-1.60909
-1.60909
-1.60655
-1.60655
-1.60655
-1.60655
-1.60655
-1.60655
-1.60655
-1.60655
-1.60655
-1.60655
-1.60655
-1.60655
-1.60655
-1.60655
-1.60655
-1.60655
-1.60655
-1.60655
-1.60655
-1.60655
-1.60655
-1.60655
-1.60655
-1.60655
-1.60655
-1.60655
-1.60655
-1.60655
-1.60655
-1.60655
-1.60655
-1.60655
-1.60655
-1.60655
-1.60655
-1.60655
-1.60655
-1.60655
-1.60655
-1.60655
-1.60655
-1.60655
-1.60655
-1.60655
-1.60655
-1.60655
-1.60655
-1.60655
-1.60655
-1.60655
-1.60655
-1.60655
-1.60655
-1.60655
-1.60655
-1.60655
-1.60655
-1.60655
-1.60655
-1.60655
-1.60655
-1.60655
-1.60655
-1.60655
-1.60655
-1.60655
-1.60655
-1.60655
-1.60655
-1.60655
-1.60655
-1.60655
-1.60655
-1.60655
-1.60655
-1.60655
-1.60655
-1.60655
-1.60401
-1.60401
-1.60401
-1.60401
-1.60401
-1.60401
-1.60401
-1.60401
-1.60401
-1.60401
-1.60401
-1.60401
-1.60401
-1.60401
-1.60401
-1.60401
-1.60401
-1.60401
-1.60401
-1.60401
-1.60401
-1.60401
-1.60401
-1.60401
-1.60401
-1.60401
-1.60401
-1.60401
-1.60401
-1.60401
-1.60401
-1.60401
-1.60401
-1.60401
-1.60401
-1.60401
-1.60401
-1.60401
-1.60401
-1.60401
-1.60401
-1.60401
-1.60401
-1.60401
-1.60401
-1.60401
-1.60401
-1.60401
-1.60401
-1.60401
-1.60401
-1.60401
-1.60401
-1.60401
-1.60401
-1.60401
-1.60401
-1.60401
-1.60401
-1.60401
-1.60401
-1.60401
-1.60401
-1.60401
-1.60401
-1.60401
-1.60401
-1.60401
-1.60401
-1.60401
-1.60401
-1.60401
-1.60401
-1.60401
-1.60401
-1.60401
-1.60401
-1.60401
-1.60147
-1.60147
-1.60147
-1.60147
-1.60147
-1.60147
-1.60147
-1.60147
-1.60147
-1.60147
-1.60147
-1.60147
-1.60147
-1.60147
-1.60147
-1.60147
-1.60147
-1.60147
-1.60147
-1.60147
-1.60147
-1.60147
-1.60147
-1.60147
-1.60147
-1.60147
-1.60147
-1.60147
-1.60147
-1.60147
-1.60147
-1.60147
-1.60147
-1.60147
-1.60147
-1.60147
-1.60147
-1.60147
-1.60147
-1.60147
-1.60147
-1.60147
-1.60147
-1.60147
-1.60147
-1.60147
-1.60147
-1.60147
-1.60147
-1.60147
-1.60147
-1.60147
-1.60147
-1.60147
-1.60147
-1.60147
-1.60147
-1.60147
-1.60147
-1.60147
-1.60147
-1.60147
-1.60147
-1.60147
-1.60147
-1.60147
-1.60147
-1.60147
-1.60147
-1.60147
-1.60147
-1.60147
-1.60147
-1.60147
-1.60147
-1.60147
-1.60147
-1.60147
-1.59893
-1.59893
-1.59893
-1.59893
-1.59893
-1.59893
-1.59893
-1.59893
-1.59893
-1.59893
-1.59893
-1.59893
-1.59893
-1.59893
-1.59893
-1.59893
-1.59893
-1.59893
-1.59893
-1.59893
-1.59893
-1.59893
-1.59893
-1.59893
-1.59893
-1.59893
-1.59893
-1.59893
-1.59893
-1.59893
-1.59893
-1.59893
-1.59893
-1.59893
-1.59893
-1.59893
-1.59893
-1.59893
-1.59893
-1.59893
-1.59893
-1.59893
-1.59893
-1.59893
-1.59893
-1.59893
-1.59893
-1.59893
-1.59893
-1.59893
-1.59893
-1.59893
-1.59893
-1.59893
-1.59893
-1.59893
-1.59893
-1.59893
-1.59893
-1.59893
-1.59893
-1.59893
-1.59893
-1.59893
-1.59893
-1.59893
-1.59893
-1.59893
-1.59893
-1.59893
-1.59893
-1.59893
-1.59893
-1.59893
-1.59893
-1.59893
-1.59893
-1.59893
-1.59639
-1.59639
-1.59639
-1.59639
-1.59639
-1.59639
-1.59639
-1.59639
-1.59639
-1.59639
-1.59639
-1.59639
-1.59639
-1.59639
-1.59639
-1.59639
-1.59639
-1.59639
-1.59639
-1.59639
-1.59639
-1.59639
-1.59639
-1.59639
-1.59639
-1.59639
-1.59639
-1.59639
-1.59639
-1.59639
-1.59639
-1.59639
-1.59639
-1.59639
-1.59639
-1.59639
-1.59639
-1.59639
-1.59639
-1.59639
-1.59639
-1.59639
-1.59639
-1.59639
-1.59639
-1.59639
-1.59639
-1.59639
-1.59639
-1.59639
-1.59639
-1.59639
-1.59639
-1.59639
-1.59639
-1.59639
-1.59639
-1.59639
-1.59639
-1.59639
-1.59639
-1.59639
-1.59639
-1.59639
-1.59639
-1.59639
-1.59639
-1.59639
-1.59639
-1.59639
-1.59639
-1.59639
-1.59639
-1.59639
-1.59639
-1.59639
-1.59639
-1.59639
-1.59385
-1.59385
-1.59385
-1.59385
-1.59385
-1.59385
-1.59385
-1.59385
-1.59385
-1.59385
-1.59385
-1.59385
-1.59385
-1.59385
-1.59385
-1.59385
-1.59385
-1.59385
-1.59385
-1.59385
-1.59385
-1.59385
-1.59385
-1.59385
-1.59385
-1.59385
-1.59385
-1.59385
-1.59385
-1.59385
-1.59385
-1.59385
-1.59385
-1.59385
-1.59385
-1.59385
-1.59385
-1.59385
-1.59385
-1.59385
-1.59385
-1.59385
-1.59385
-1.59385
-1.59385
-1.59385
-1.59385
-1.59385
-1.59385
-1.59385
-1.59385
-1.59385
-1.59385
-1.59385
-1.59385
-1.59385
-1.59385
-1.59385
-1.59385
-1.59385
-1.59385
-1.59385
-1.59385
-1.59385
-1.59385
-1.59385
-1.59385
-1.59385
-1.59385
-1.59385
-1.59385
-1.59385
-1.59385
-1.59385
-1.59385
-1.59385
-1.59385
-1.59385
-1.59131
-1.59131
-1.59131
-1.59131
-1.59131
-1.59131
-1.59131
-1.59131
-1.59131
-1.59131
-1.59131
-1.59131
-1.59131
-1.59131
-1.59131
-1.59131
-1.59131
-1.59131
-1.59131
-1.59131
-1.59131
-1.59131
-1.59131
-1.59131
-1.59131
-1.59131
-1.59131
-1.59131
-1.59131
-1.59131
-1.59131
-1.59131
-1.59131
-1.59131
-1.59131
-1.59131
-1.59131
-1.59131
-1.59131
-1.59131
-1.59131
-1.59131
-1.59131
-1.59131
-1.59131
-1.59131
-1.59131
-1.59131
-1.59131
-1.59131
-1.59131
-1.59131
-1.59131
-1.59131
-1.59131
-1.59131
-1.59131
-1.59131
-1.59131
-1.59131
-1.59131
-1.59131
-1.59131
-1.59131
-1.59131
-1.59131
-1.59131
-1.59131
-1.59131
-1.59131
-1.59131
-1.59131
-1.59131
-1.59131
-1.59131
-1.59131
-1.59131
-1.59131
-1.58877
-1.58877
-1.58877
-1.58877
-1.58877
-1.58877
-1.58877
-1.58877
-1.58877
-1.58877
-1.58877
-1.58877
-1.58877
-1.58877
-1.58877
-1.58877
-1.58877
-1.58877
-1.58877
-1.58877
-1.58877
-1.58877
-1.58877
-1.58877
-1.58877
-1.58877
-1.58877
-1.58877
-1.58877
-1.58877
-1.58877
-1.58877
-1.58877
-1.58877
-1.58877
-1.58877
-1.58877
-1.58877
-1.58877
-1.58877
-1.58877
-1.58877
-1.58877
-1.58877
-1.58877
-1.58877
-1.58877
-1.58877
-1.58877
-1.58877
-1.58877
-1.58877
-1.58877
-1.58877
-1.58877
-1.58877
-1.58877
-1.58877
-1.58877
-1.58877
-1.58877
-1.58877
-1.58877
-1.58877
-1.58877
-1.58877
-1.58877
-1.58877
-1.58877
-1.58877
-1.58877
-1.58877
-1.58877
-1.58877
-1.58877
-1.58877
-1.58877
-1.58877
-1.58623
-1.58623
-1.58623
-1.58623
-1.58623
-1.58623
-1.58623
-1.58623
-1.58623
-1.58623
-1.58623
-1.58623
-1.58623
-1.58623
-1.58623
-1.58623
-1.58623
-1.58623
-1.58623
-1.58623
-1.58623
-1.58623
-1.58623
-1.58623
-1.58623
-1.58623
-1.58623
-1.58623
-1.58623
-1.58623
-1.58623
-1.58623
-1.58623
-1.58623
-1.58623
-1.58623
-1.58623
-1.58623
-1.58623
-1.58623
-1.58623
-1.58623
-1.58623
-1.58623
-1.58623
-1.58623
-1.58623
-1.58623
-1.58623
-1.58623
-1.58623
-1.58623
-1.58623
-1.58623
-1.58623
-1.58623
-1.58623
-1.58623
-1.58623
-1.58623
-1.58623
-1.58623
-1.58623
-1.58623
-1.58623
-1.58623
-1.58623
-1.58623
-1.58623
-1.58623
-1.58623
-1.58623
-1.58623
-1.58623
-1.58623
-1.58623
-1.58623
-1.58623
-1.58369
-1.58369
-1.58369
-1.58369
-1.58369
-1.58369
-1.58369
-1.58369
-1.58369
-1.58369
-1.58369
-1.58369
-1.58369
-1.58369
-1.58369
-1.58369
-1.58369
-1.58369
-1.58369
-1.58369
-1.58369
-1.58369
-1.58369
-1.58369
-1.58369
-1.58369
-1.58369
-1.58369
-1.58369
-1.58369
-1.58369
-1.58369
-1.58369
-1.58369
-1.58369
-1.58369
-1.58369
-1.58369
-1.58369
-1.58369
-1.58369
-1.58369
-1.58369
-1.58369
-1.58369
-1.58369
-1.58369
-1.58369
-1.58369
-1.58369
-1.58369
-1.58369
-1.58369
-1.58369
-1.58369
-1.58369
-1.58369
-1.58369
-1.58369
-1.58369
-1.58369
-1.58369
-1.58369
-1.58369
-1.58369
-1.58369
-1.58369
-1.58369
-1.58369
-1.58369
-1.58369
-1.58369
-1.58369
-1.58369
-1.58369
-1.58369
-1.58369
-1.58369
-1.58115
-1.58115
-1.58115
-1.58115
-1.58115
-1.58115
-1.58115
-1.58115
-1.58115
-1.58115
-1.58115
-1.58115
-1.58115
-1.58115
-1.58115
-1.58115
-1.58115
-1.58115
-1.58115
-1.58115
-1.58115
-1.58115
-1.58115
-1.58115
-1.58115
-1.58115
-1.58115
-1.58115
-1.58115
-1.58115
-1.58115
-1.58115
-1.58115
-1.58115
-1.58115
-1.58115
-1.58115
-1.58115
-1.58115
-1.58115
-1.58115
-1.58115
-1.58115
-1.58115
-1.58115
-1.58115
-1.58115
-1.58115
-1.58115
-1.58115
-1.58115
-1.58115
-1.58115
-1.58115
-1.58115
-1.58115
-1.58115
-1.58115
-1.58115
-1.58115
-1.58115
-1.58115
-1.58115
-1.58115
-1.58115
-1.58115
-1.58115
-1.58115
-1.58115
-1.58115
-1.58115
-1.58115
-1.58115
-1.58115
-1.58115
-1.58115
-1.58115
-1.58115
-1.57861
-1.57861
-1.57861
-1.57861
-1.57861
-1.57861
-1.57861
-1.57861
-1.57861
-1.57861
-1.57861
-1.57861
-1.57861
-1.57861
-1.57861
-1.57861
-1.57861
-1.57861
-1.57861
-1.57861
-1.57861
-1.57861
-1.57861
-1.57861
-1.57861
-1.57861
-1.57861
-1.57861
-1.57861
-1.57861
-1.57861
-1.57861
-1.57861
-1.57861
-1.57861
-1.57861
-1.57861
-1.57861
-1.57861
-1.57861
-1.57861
-1.57861
-1.57861
-1.57861
-1.57861
-1.57861
-1.57861
-1.57861
-1.57861
-1.57861
-1.57861
-1.57861
-1.57861
-1.57861
-1.57861
-1.57861
-1.57861
-1.57861
-1.57861
-1.57861
-1.57861
-1.57861
-1.57861
-1.57861
-1.57861
-1.57861
-1.57861
-1.57861
-1.57861
-1.57861
-1.57861
-1.57861
-1.57861
-1.57861
-1.57861
-1.57861
-1.57861
-1.57861
-1.57607
-1.57607
-1.57607
-1.57607
-1.57607
-1.57607
-1.57607
-1.57607
-1.57607
-1.57607
-1.57607
-1.57607
-1.57607
-1.57607
-1.57607
-1.57607
-1.57607
-1.57607
-1.57607
-1.57607
-1.57607
-1.57607
-1.57607
-1.57607
-1.57607
-1.57607
-1.57607
-1.57607
-1.57607
-1.57607
-1.57607
-1.57607
-1.57607
-1.57607
-1.57607
-1.57607
-1.57607
-1.57607
-1.57607
-1.57607
-1.57607
-1.57607
-1.57607
-1.57607
-1.57607
-1.57607
-1.57607
-1.57607
-1.57607
-1.57607
-1.57607
-1.57607
-1.57607
-1.57607
-1.57607
-1.57607
-1.57607
-1.57607
-1.57607
-1.57607
-1.57607
-1.57607
-1.57607
-1.57607
-1.57607
-1.57607
-1.57607
-1.57607
-1.57607
-1.57607
-1.57607
-1.57607
-1.57607
-1.57607
-1.57607
-1.57607
-1.57607
-1.57607
-1.57353
-1.57353
-1.57353
-1.57353
-1.57353
-1.57353
-1.57353
-1.57353
-1.57353
-1.57353
-1.57353
-1.57353
-1.57353
-1.57353
-1.57353
-1.57353
-1.57353
-1.57353
-1.57353
-1.57353
-1.57353
-1.57353
-1.57353
-1.57353
-1.57353
-1.57353
-1.57353
-1.57353
-1.57353
-1.57353
-1.57353
-1.57353
-1.57353
-1.57353
-1.57353
-1.57353
-1.57353
-1.57353
-1.57353
-1.57353
-1.57353
-1.57353
-1.57353
-1.57353
-1.57353
-1.57353
-1.57353
-1.57353
-1.57353
-1.57353
-1.57353
-1.57353
-1.57353
-1.57353
-1.57353
-1.57353
-1.57353
-1.57353
-1.57353
-1.57353
-1.57353
-1.57353
-1.57353
-1.57353
-1.57353
-1.57353
-1.57353
-1.57353
-1.57353
-1.57353
-1.57353
-1.57353
-1.57353
-1.57353
-1.57353
-1.57353
-1.57353
-1.57353
-1.57099
-1.57099
-1.57099
-1.57099
-1.57099
-1.57099
-1.57099
-1.57099
-1.57099
-1.57099
-1.57099
-1.57099
-1.57099
-1.57099
-1.57099
-1.57099
-1.57099
-1.57099
-1.57099
-1.57099
-1.57099
-1.57099
-1.57099
-1.57099
-1.57099
-1.57099
-1.57099
-1.57099
-1.57099
-1.57099
-1.57099
-1.57099
-1.57099
-1.57099
-1.57099
-1.57099
-1.57099
-1.57099
-1.57099
-1.57099
-1.57099
-1.57099
-1.57099
-1.57099
-1.57099
-1.57099
-1.57099
-1.57099
-1.57099
-1.57099
-1.57099
-1.57099
-1.57099
-1.57099
-1.57099
-1.57099
-1.57099
-1.57099
-1.57099
-1.57099
-1.57099
-1.57099
-1.57099
-1.57099
-1.57099
-1.57099
-1.57099
-1.57099
-1.57099
-1.57099
-1.57099
-1.57099
-1.57099
-1.57099
-1.57099
-1.57099
-1.57099
-1.57099
-1.56845
-1.56845
-1.56845
-1.56845
-1.56845
-1.56845
-1.56845
-1.56845
-1.56845
-1.56845
-1.56845
-1.56845
-1.56845
-1.56845
-1.56845
-1.56845
-1.56845
-1.56845
-1.56845
-1.56845
-1.56845
-1.56845
-1.56845
-1.56845
-1.56845
-1.56845
-1.56845
-1.56845
-1.56845
-1.56845
-1.56845
-1.56845
-1.56845
-1.56845
-1.56845
-1.56845
-1.56845
-1.56845
-1.56845
-1.56845
-1.56845
-1.56845
-1.56845
-1.56845
-1.56845
-1.56845
-1.56845
-1.56845
-1.56845
-1.56845
-1.56845
-1.56845
-1.56845
-1.56845
-1.56845
-1.56845
-1.56845
-1.56845
-1.56845
-1.56845
-1.56845
-1.56845
-1.56845
-1.56845
-1.56845
-1.56845
-1.56845
-1.56845
-1.56845
-1.56845
-1.56845
-1.56845
-1.56845
-1.56845
-1.56845
-1.56845
-1.56845
-1.56845
-1.56591
-1.56591
-1.56591
-1.56591
-1.56591
-1.56591
-1.56591
-1.56591
-1.56591
-1.56591
-1.56591
-1.56591
-1.56591
-1.56591
-1.56591
-1.56591
-1.56591
-1.56591
-1.56591
-1.56591
-1.56591
-1.56591
-1.56591
-1.56591
-1.56591
-1.56591
-1.56591
-1.56591
-1.56591
-1.56591
-1.56591
-1.56591
-1.56591
-1.56591
-1.56591
-1.56591
-1.56591
-1.56591
-1.56591
-1.56591
-1.56591
-1.56591
-1.56591
-1.56591
-1.56591
-1.56591
-1.56591
-1.56591
-1.56591
-1.56591
-1.56591
-1.56591
-1.56591
-1.56591
-1.56591
-1.56591
-1.56591
-1.56591
-1.56591
-1.56591
-1.56591
-1.56591
-1.56591
-1.56591
-1.56591
-1.56591
-1.56591
-1.56591
-1.56591
-1.56591
-1.56591
-1.56591
-1.56591
-1.56591
-1.56591
-1.56591
-1.56591
-1.56591
-1.56337
-1.56337
-1.56337
-1.56337
-1.56337
-1.56337
-1.56337
-1.56337
-1.56337
-1.56337
-1.56337
-1.56337
-1.56337
-1.56337
-1.56337
-1.56337
-1.56337
-1.56337
-1.56337
-1.56337
-1.56337
-1.56337
-1.56337
-1.56337
-1.56337
-1.56337
-1.56337
-1.56337
-1.56337
-1.56337
-1.56337
-1.56337
-1.56337
-1.56337
-1.56337
-1.56337
-1.56337
-1.56337
-1.56337
-1.56337
-1.56337
-1.56337
-1.56337
-1.56337
-1.56337
-1.56337
-1.56337
-1.56337
-1.56337
-1.56337
-1.56337
-1.56337
-1.56337
-1.56337
-1.56337
-1.56337
-1.56337
-1.56337
-1.56337
-1.56337
-1.56337
-1.56337
-1.56337
-1.56337
-1.56337
-1.56337
-1.56337
-1.56337
-1.56337
-1.56337
-1.56337
-1.56337
-1.56337
-1.56337
-1.56337
-1.56337
-1.56337
-1.56337
-1.56083
-1.56083
-1.56083
-1.56083
-1.56083
-1.56083
-1.56083
-1.56083
-1.56083
-1.56083
-1.56083
-1.56083
-1.56083
-1.56083
-1.56083
-1.56083
-1.56083
-1.56083
-1.56083
-1.56083
-1.56083
-1.56083
-1.56083
-1.56083
-1.56083
-1.56083
-1.56083
-1.56083
-1.56083
-1.56083
-1.56083
-1.56083
-1.56083
-1.56083
-1.56083
-1.56083
-1.56083
-1.56083
-1.56083
-1.56083
-1.56083
-1.56083
-1.56083
-1.56083
-1.56083
-1.56083
-1.56083
-1.56083
-1.56083
-1.56083
-1.56083
-1.56083
-1.56083
-1.56083
-1.56083
-1.56083
-1.56083
-1.56083
-1.56083
-1.56083
-1.56083
-1.56083
-1.56083
-1.56083
-1.56083
-1.56083
-1.56083
-1.56083
-1.56083
-1.56083
-1.56083
-1.56083
-1.56083
-1.56083
-1.56083
-1.56083
-1.56083
-1.56083
-1.55829
-1.55829
-1.55829
-1.55829
-1.55829
-1.55829
-1.55829
-1.55829
-1.55829
-1.55829
-1.55829
-1.55829
-1.55829
-1.55829
-1.55829
-1.55829
-1.55829
-1.55829
-1.55829
-1.55829
-1.55829
-1.55829
-1.55829
-1.55829
-1.55829
-1.55829
-1.55829
-1.55829
-1.55829
-1.55829
-1.55829
-1.55829
-1.55829
-1.55829
-1.55829
-1.55829
-1.55829
-1.55829
-1.55829
-1.55829
-1.55829
-1.55829
-1.55829
-1.55829
-1.55829
-1.55829
-1.55829
-1.55829
-1.55829
-1.55829
-1.55829
-1.55829
-1.55829
-1.55829
-1.55829
-1.55829
-1.55829
-1.55829
-1.55829
-1.55829
-1.55829
-1.55829
-1.55829
-1.55829
-1.55829
-1.55829
-1.55829
-1.55829
-1.55829
-1.55829
-1.55829
-1.55829
-1.55829
-1.55829
-1.55829
-1.55829
-1.55829
-1.55829
-1.55575
-1.55575
-1.55575
-1.55575
-1.55575
-1.55575
-1.55575
-1.55575
-1.55575
-1.55575
-1.55575
-1.55575
-1.55575
-1.55575
-1.55575
-1.55575
-1.55575
-1.55575
-1.55575
-1.55575
-1.55575
-1.55575
-1.55575
-1.55575
-1.55575
-1.55575
-1.55575
-1.55575
-1.55575
-1.55575
-1.55575
-1.55575
-1.55575
-1.55575
-1.55575
-1.55575
-1.55575
-1.55575
-1.55575
-1.55575
-1.55575
-1.55575
-1.55575
-1.55575
-1.55575
-1.55575
-1.55575
-1.55575
-1.55575
-1.55575
-1.55575
-1.55575
-1.55575
-1.55575
-1.55575
-1.55575
-1.55575
-1.55575
-1.55575
-1.55575
-1.55575
-1.55575
-1.55575
-1.55575
-1.55575
-1.55575
-1.55575
-1.55575
-1.55575
-1.55575
-1.55575
-1.55575
-1.55575
-1.55575
-1.55575
-1.55575
-1.55575
-1.55575
-1.55321
-1.55321
-1.55321
-1.55321
-1.55321
-1.55321
-1.55321
-1.55321
-1.55321
-1.55321
-1.55321
-1.55321
-1.55321
-1.55321
-1.55321
-1.55321
-1.55321
-1.55321
-1.55321
-1.55321
-1.55321
-1.55321
-1.55321
-1.55321
-1.55321
-1.55321
-1.55321
-1.55321
-1.55321
-1.55321
-1.55321
-1.55321
-1.55321
-1.55321
-1.55321
-1.55321
-1.55321
-1.55321
-1.55321
-1.55321
-1.55321
-1.55321
-1.55321
-1.55321
-1.55321
-1.55321
-1.55321
-1.55321
-1.55321
-1.55321
-1.55321
-1.55321
-1.55321
-1.55321
-1.55321
-1.55321
-1.55321
-1.55321
-1.55321
-1.55321
-1.55321
-1.55321
-1.55321
-1.55321
-1.55321
-1.55321
-1.55321
-1.55321
-1.55321
-1.55321
-1.55321
-1.55321
-1.55321
-1.55321
-1.55321
-1.55321
-1.55321
-1.55321
-1.55067
-1.55067
-1.55067
-1.55067
-1.55067
-1.55067
-1.55067
-1.55067
-1.55067
-1.55067
-1.55067
-1.55067
-1.55067
-1.55067
-1.55067
-1.55067
-1.55067
-1.55067
-1.55067
-1.55067
-1.55067
-1.55067
-1.55067
-1.55067
-1.55067
-1.55067
-1.55067
-1.55067
-1.55067
-1.55067
-1.55067
-1.55067
-1.55067
-1.55067
-1.55067
-1.55067
-1.55067
-1.55067
-1.55067
-1.55067
-1.55067
-1.55067
-1.55067
-1.55067
-1.55067
-1.55067
-1.55067
-1.55067
-1.55067
-1.55067
-1.55067
-1.55067
-1.55067
-1.55067
-1.55067
-1.55067
-1.55067
-1.55067
-1.55067
-1.55067
-1.55067
-1.55067
-1.55067
-1.55067
-1.55067
-1.55067
-1.55067
-1.55067
-1.55067
-1.55067
-1.55067
-1.55067
-1.55067
-1.55067
-1.55067
-1.55067
-1.55067
-1.55067
-1.54813
-1.54813
-1.54813
-1.54813
-1.54813
-1.54813
-1.54813
-1.54813
-1.54813
-1.54813
-1.54813
-1.54813
-1.54813
-1.54813
-1.54813
-1.54813
-1.54813
-1.54813
-1.54813
-1.54813
-1.54813
-1.54813
-1.54813
-1.54813
-1.54813
-1.54813
-1.54813
-1.54813
-1.54813
-1.54813
-1.54813
-1.54813
-1.54813
-1.54813
-1.54813
-1.54813
-1.54813
-1.54813
-1.54813
-1.54813
-1.54813
-1.54813
-1.54813
-1.54813
-1.54813
-1.54813
-1.54813
-1.54813
-1.54813
-1.54813
-1.54813
-1.54813
-1.54813
-1.54813
-1.54813
-1.54813
-1.54813
-1.54813
-1.54813
-1.54813
-1.54813
-1.54813
-1.54813
-1.54813
-1.54813
-1.54813
-1.54813
-1.54813
-1.54813
-1.54813
-1.54813
-1.54813
-1.54813
-1.54813
-1.54813
-1.54813
-1.54813
-1.54813
-1.54559
-1.54559
-1.54559
-1.54559
-1.54559
-1.54559
-1.54559
-1.54559
-1.54559
-1.54559
-1.54559
-1.54559
-1.54559
-1.54559
-1.54559
-1.54559
-1.54559
-1.54559
-1.54559
-1.54559
-1.54559
-1.54559
-1.54559
-1.54559
-1.54559
-1.54559
-1.54559
-1.54559
-1.54559
-1.54559
-1.54559
-1.54559
-1.54559
-1.54559
-1.54559
-1.54559
-1.54559
-1.54559
-1.54559
-1.54559