/*--------------------------------*- C++ -*----------------------------------*\
| =========                 |                                                 |
| \\      /  F ield         | OpenFOAM: The Open Source CFD Toolbox           |
|  \\    /   O peration     | Version:  5.x                                   |
|   \\  /    A nd           | Web:      www.OpenFOAM.org                      |
|    \\/     M anipulation  |                                                 |
\*---------------------------------------------------------------------------*/
FoamFile
{
    version     2.0;
    format      ascii;
    class       volScalarField;
    location    "constant";
    object      cx;
}
// * * * * * * * * * * * * * * * * * * * * * * * * * * * * * * * * * * * * * //

dimensions      [0 1 0 0 0 0 0];

internalField   nonuniform List<scalar> 
20540
(
-1.55331
-1.42631
-1.55331
-1.42631
-1.55331
-1.42631
-1.55331
-1.42631
-1.55331
-1.42631
-1.55331
-1.42631
-1.55331
-1.42631
-1.55331
-1.42631
-1.55331
-1.42631
-1.55331
-1.42631
-1.55331
-1.42631
-1.55331
-1.42631
-1.55331
-1.42631
-1.55331
-1.42631
-1.55331
-1.42631
-1.55331
-1.42631
-1.55331
-1.42631
-1.55331
-1.42631
-1.55331
-1.42631
-1.55331
-1.42631
-1.55331
-1.42631
-1.55331
-1.42631
-1.55331
-1.42631
-1.55331
-1.42631
-1.55331
-1.42631
-1.55331
-1.42631
-1.55331
-1.42631
-1.55331
-1.42631
-1.55331
-1.42631
-1.55331
-1.42631
-1.55331
-1.42631
-1.55331
-1.42631
-1.55331
-1.42631
-1.55331
-1.42631
-1.55331
-1.42631
-1.55331
-1.42631
-1.55331
-1.42631
-1.55331
-1.42631
-1.55331
-1.42631
-1.55331
-1.42631
-1.55331
-1.42631
-1.55331
-1.42631
-1.55331
-1.42631
-1.55331
-1.42631
-1.55331
-1.42631
-1.55331
-1.42631
-1.55331
-1.42631
-1.55331
-1.42631
-1.55331
-1.42631
-1.55331
-1.42631
-1.55331
-1.42631
-1.55331
-1.42631
-1.55331
-1.42631
-1.55331
-1.42631
-1.55331
-1.42631
-1.55331
-1.42631
-1.55331
-1.42631
-1.55331
-1.42631
-1.55331
-1.42631
-1.55331
-1.42631
-1.55331
-1.42631
-1.55331
-1.42631
-1.55331
-1.42631
-1.55331
-1.42631
-1.55331
-1.42631
-1.36984
-1.31652
-1.26514
-1.21564
-1.16794
-1.12198
-1.07769
-1.03502
-0.993906
-0.95429
-0.916118
-0.879338
-0.843898
-0.809751
-0.776848
-0.745145
-0.714598
-0.685165
-0.656804
-0.629478
-0.603148
-0.577777
-0.553332
-0.529778
-0.507082
-0.485214
-0.464144
-0.443841
-0.424279
-0.405429
-0.387267
-0.369768
-0.352906
-0.336659
-0.321004
-0.30592
-0.291385
-0.277381
-0.263887
-0.250886
-0.238358
-0.226287
-0.214656
-0.203449
-0.192651
-0.182246
-0.172221
-0.162561
-0.153253
-0.144285
-0.135643
-0.127317
-0.119294
-0.111564
-0.104115
-0.0969384
-0.0900231
-0.0833599
-0.0769397
-0.0707535
-0.0647929
-0.0590495
-0.0535156
-0.0490611
-0.0456683
-0.0424415
-0.0393727
-0.0364539
-0.033678
-0.0310379
-0.028527
-0.0261389
-0.0238677
-0.0217076
-0.0196531
-0.0176993
-0.015841
-0.0140736
-0.0123927
-0.010794
-0.0092736
-0.00782755
-0.00645226
-0.00514426
-0.00390026
-0.00271712
-0.00159187
-0.000521677
-1.36984
-1.31652
-1.26514
-1.21564
-1.16794
-1.12198
-1.07769
-1.03502
-0.993906
-0.95429
-0.916118
-0.879338
-0.843898
-0.809751
-0.776848
-0.745145
-0.714598
-0.685165
-0.656804
-0.629478
-0.603148
-0.577777
-0.553332
-0.529778
-0.507082
-0.485214
-0.464144
-0.443841
-0.424279
-0.405429
-0.387267
-0.369768
-0.352906
-0.336659
-0.321004
-0.30592
-0.291385
-0.277381
-0.263887
-0.250886
-0.238358
-0.226287
-0.214656
-0.203449
-0.192651
-0.182246
-0.172221
-0.162561
-0.153253
-0.144285
-0.135643
-0.127317
-0.119294
-0.111564
-0.104115
-0.0969384
-0.0900231
-0.0833599
-0.0769397
-0.0707535
-0.0647929
-0.0590495
-0.0535156
-0.0490611
-0.0456683
-0.0424415
-0.0393727
-0.0364539
-0.033678
-0.0310379
-0.028527
-0.0261389
-0.0238677
-0.0217076
-0.0196531
-0.0176993
-0.015841
-0.0140736
-0.0123927
-0.010794
-0.0092736
-0.00782755
-0.00645226
-0.00514426
-0.00390026
-0.00271712
-0.00159187
-0.000521677
-1.36984
-1.31652
-1.26514
-1.21564
-1.16794
-1.12198
-1.07769
-1.03502
-0.993906
-0.95429
-0.916118
-0.879338
-0.843898
-0.809751
-0.776848
-0.745145
-0.714598
-0.685165
-0.656804
-0.629478
-0.603148
-0.577777
-0.553332
-0.529778
-0.507082
-0.485214
-0.464144
-0.443841
-0.424279
-0.405429
-0.387267
-0.369768
-0.352906
-0.336659
-0.321004
-0.30592
-0.291385
-0.277381
-0.263887
-0.250886
-0.238358
-0.226287
-0.214656
-0.203449
-0.192651
-0.182246
-0.172221
-0.162561
-0.153253
-0.144285
-0.135643
-0.127317
-0.119294
-0.111564
-0.104115
-0.0969384
-0.0900231
-0.0833599
-0.0769397
-0.0707535
-0.0647929
-0.0590495
-0.0535156
-0.0490611
-0.0456683
-0.0424415
-0.0393727
-0.0364539
-0.033678
-0.0310379
-0.028527
-0.0261389
-0.0238677
-0.0217076
-0.0196531
-0.0176993
-0.015841
-0.0140736
-0.0123927
-0.010794
-0.0092736
-0.00782755
-0.00645226
-0.00514426
-0.00390026
-0.00271712
-0.00159187
-0.000521677
-1.36984
-1.31652
-1.26514
-1.21564
-1.16794
-1.12198
-1.07769
-1.03502
-0.993906
-0.95429
-0.916118
-0.879338
-0.843898
-0.809751
-0.776848
-0.745145
-0.714598
-0.685165
-0.656804
-0.629478
-0.603148
-0.577777
-0.553332
-0.529778
-0.507082
-0.485214
-0.464144
-0.443841
-0.424279
-0.405429
-0.387267
-0.369768
-0.352906
-0.336659
-0.321004
-0.30592
-0.291385
-0.277381
-0.263887
-0.250886
-0.238358
-0.226287
-0.214656
-0.203449
-0.192651
-0.182246
-0.172221
-0.162561
-0.153253
-0.144285
-0.135643
-0.127317
-0.119294
-0.111564
-0.104115
-0.0969384
-0.0900231
-0.0833599
-0.0769397
-0.0707535
-0.0647929
-0.0590495
-0.0535156
-0.0490611
-0.0456683
-0.0424415
-0.0393727
-0.0364539
-0.033678
-0.0310379
-0.028527
-0.0261389
-0.0238677
-0.0217076
-0.0196531
-0.0176993
-0.015841
-0.0140736
-0.0123927
-0.010794
-0.0092736
-0.00782755
-0.00645226
-0.00514426
-0.00390026
-0.00271712
-0.00159187
-0.000521677
-1.36984
-1.31652
-1.26514
-1.21564
-1.16794
-1.12198
-1.07769
-1.03502
-0.993906
-0.95429
-0.916118
-0.879338
-0.843898
-0.809751
-0.776848
-0.745145
-0.714598
-0.685165
-0.656804
-0.629478
-0.603148
-0.577777
-0.553332
-0.529778
-0.507082
-0.485214
-0.464144
-0.443841
-0.424279
-0.405429
-0.387267
-0.369768
-0.352906
-0.336659
-0.321004
-0.30592
-0.291385
-0.277381
-0.263887
-0.250886
-0.238358
-0.226287
-0.214656
-0.203449
-0.192651
-0.182246
-0.172221
-0.162561
-0.153253
-0.144285
-0.135643
-0.127317
-0.119294
-0.111564
-0.104115
-0.0969384
-0.0900231
-0.0833599
-0.0769397
-0.0707535
-0.0647929
-0.0590495
-0.0535156
-0.0490611
-0.0456683
-0.0424415
-0.0393727
-0.0364539
-0.033678
-0.0310379
-0.028527
-0.0261389
-0.0238677
-0.0217076
-0.0196531
-0.0176993
-0.015841
-0.0140736
-0.0123927
-0.010794
-0.0092736
-0.00782755
-0.00645226
-0.00514426
-0.00390026
-0.00271712
-0.00159187
-0.000521677
-1.36984
-1.31652
-1.26514
-1.21564
-1.16794
-1.12198
-1.07769
-1.03502
-0.993906
-0.95429
-0.916118
-0.879338
-0.843898
-0.809751
-0.776848
-0.745145
-0.714598
-0.685165
-0.656804
-0.629478
-0.603148
-0.577777
-0.553332
-0.529778
-0.507082
-0.485214
-0.464144
-0.443841
-0.424279
-0.405429
-0.387267
-0.369768
-0.352906
-0.336659
-0.321004
-0.30592
-0.291385
-0.277381
-0.263887
-0.250886
-0.238358
-0.226287
-0.214656
-0.203449
-0.192651
-0.182246
-0.172221
-0.162561
-0.153253
-0.144285
-0.135643
-0.127317
-0.119294
-0.111564
-0.104115
-0.0969384
-0.0900231
-0.0833599
-0.0769397
-0.0707535
-0.0647929
-0.0590495
-0.0535156
-0.0490611
-0.0456683
-0.0424415
-0.0393727
-0.0364539
-0.033678
-0.0310379
-0.028527
-0.0261389
-0.0238677
-0.0217076
-0.0196531
-0.0176993
-0.015841
-0.0140736
-0.0123927
-0.010794
-0.0092736
-0.00782755
-0.00645226
-0.00514426
-0.00390026
-0.00271712
-0.00159187
-0.000521677
-1.36984
-1.31652
-1.26514
-1.21564
-1.16794
-1.12198
-1.07769
-1.03502
-0.993906
-0.95429
-0.916118
-0.879338
-0.843898
-0.809751
-0.776848
-0.745145
-0.714598
-0.685165
-0.656804
-0.629478
-0.603148
-0.577777
-0.553332
-0.529778
-0.507082
-0.485214
-0.464144
-0.443841
-0.424279
-0.405429
-0.387267
-0.369768
-0.352906
-0.336659
-0.321004
-0.30592
-0.291385
-0.277381
-0.263887
-0.250886
-0.238358
-0.226287
-0.214656
-0.203449
-0.192651
-0.182246
-0.172221
-0.162561
-0.153253
-0.144285
-0.135643
-0.127317
-0.119294
-0.111564
-0.104115
-0.0969384
-0.0900231
-0.0833599
-0.0769397
-0.0707535
-0.0647929
-0.0590495
-0.0535156
-0.0490611
-0.0456683
-0.0424415
-0.0393727
-0.0364539
-0.033678
-0.0310379
-0.028527
-0.0261389
-0.0238677
-0.0217076
-0.0196531
-0.0176993
-0.015841
-0.0140736
-0.0123927
-0.010794
-0.0092736
-0.00782755
-0.00645226
-0.00514426
-0.00390026
-0.00271712
-0.00159187
-0.000521677
-1.36984
-1.31652
-1.26514
-1.21564
-1.16794
-1.12198
-1.07769
-1.03502
-0.993906
-0.95429
-0.916118
-0.879338
-0.843898
-0.809751
-0.776848
-0.745145
-0.714598
-0.685165
-0.656804
-0.629478
-0.603148
-0.577777
-0.553332
-0.529778
-0.507082
-0.485214
-0.464144
-0.443841
-0.424279
-0.405429
-0.387267
-0.369768
-0.352906
-0.336659
-0.321004
-0.30592
-0.291385
-0.277381
-0.263887
-0.250886
-0.238358
-0.226287
-0.214656
-0.203449
-0.192651
-0.182246
-0.172221
-0.162561
-0.153253
-0.144285
-0.135643
-0.127317
-0.119294
-0.111564
-0.104115
-0.0969384
-0.0900231
-0.0833599
-0.0769397
-0.0707535
-0.0647929
-0.0590495
-0.0535156
-0.0490611
-0.0456683
-0.0424415
-0.0393727
-0.0364539
-0.033678
-0.0310379
-0.028527
-0.0261389
-0.0238677
-0.0217076
-0.0196531
-0.0176993
-0.015841
-0.0140736
-0.0123927
-0.010794
-0.0092736
-0.00782755
-0.00645226
-0.00514426
-0.00390026
-0.00271712
-0.00159187
-0.000521677
-1.36984
-1.31652
-1.26514
-1.21564
-1.16794
-1.12198
-1.07769
-1.03502
-0.993906
-0.95429
-0.916118
-0.879338
-0.843898
-0.809751
-0.776848
-0.745145
-0.714598
-0.685165
-0.656804
-0.629478
-0.603148
-0.577777
-0.553332
-0.529778
-0.507082
-0.485214
-0.464144
-0.443841
-0.424279
-0.405429
-0.387267
-0.369768
-0.352906
-0.336659
-0.321004
-0.30592
-0.291385
-0.277381
-0.263887
-0.250886
-0.238358
-0.226287
-0.214656
-0.203449
-0.192651
-0.182246
-0.172221
-0.162561
-0.153253
-0.144285
-0.135643
-0.127317
-0.119294
-0.111564
-0.104115
-0.0969384
-0.0900231
-0.0833599
-0.0769397
-0.0707535
-0.0647929
-0.0590495
-0.0535156
-0.0490611
-0.0456683
-0.0424415
-0.0393727
-0.0364539
-0.033678
-0.0310379
-0.028527
-0.0261389
-0.0238677
-0.0217076
-0.0196531
-0.0176993
-0.015841
-0.0140736
-0.0123927
-0.010794
-0.0092736
-0.00782755
-0.00645226
-0.00514426
-0.00390026
-0.00271712
-0.00159187
-0.000521677
-1.36984
-1.31652
-1.26514
-1.21564
-1.16794
-1.12198
-1.07769
-1.03502
-0.993906
-0.95429
-0.916118
-0.879338
-0.843898
-0.809751
-0.776848
-0.745145
-0.714598
-0.685165
-0.656804
-0.629478
-0.603148
-0.577777
-0.553332
-0.529778
-0.507082
-0.485214
-0.464144
-0.443841
-0.424279
-0.405429
-0.387267
-0.369768
-0.352906
-0.336659
-0.321004
-0.30592
-0.291385
-0.277381
-0.263887
-0.250886
-0.238358
-0.226287
-0.214656
-0.203449
-0.192651
-0.182246
-0.172221
-0.162561
-0.153253
-0.144285
-0.135643
-0.127317
-0.119294
-0.111564
-0.104115
-0.0969384
-0.0900231
-0.0833599
-0.0769397
-0.0707535
-0.0647929
-0.0590495
-0.0535156
-0.0490611
-0.0456683
-0.0424415
-0.0393727
-0.0364539
-0.033678
-0.0310379
-0.028527
-0.0261389
-0.0238677
-0.0217076
-0.0196531
-0.0176993
-0.015841
-0.0140736
-0.0123927
-0.010794
-0.0092736
-0.00782755
-0.00645226
-0.00514426
-0.00390026
-0.00271712
-0.00159187
-0.000521677
-1.36984
-1.31652
-1.26514
-1.21564
-1.16794
-1.12198
-1.07769
-1.03502
-0.993906
-0.95429
-0.916118
-0.879338
-0.843898
-0.809751
-0.776848
-0.745145
-0.714598
-0.685165
-0.656804
-0.629478
-0.603148
-0.577777
-0.553332
-0.529778
-0.507082
-0.485214
-0.464144
-0.443841
-0.424279
-0.405429
-0.387267
-0.369768
-0.352906
-0.336659
-0.321004
-0.30592
-0.291385
-0.277381
-0.263887
-0.250886
-0.238358
-0.226287
-0.214656
-0.203449
-0.192651
-0.182246
-0.172221
-0.162561
-0.153253
-0.144285
-0.135643
-0.127317
-0.119294
-0.111564
-0.104115
-0.0969384
-0.0900231
-0.0833599
-0.0769397
-0.0707535
-0.0647929
-0.0590495
-0.0535156
-0.0490611
-0.0456683
-0.0424415
-0.0393727
-0.0364539
-0.033678
-0.0310379
-0.028527
-0.0261389
-0.0238677
-0.0217076
-0.0196531
-0.0176993
-0.015841
-0.0140736
-0.0123927
-0.010794
-0.0092736
-0.00782755
-0.00645226
-0.00514426
-0.00390026
-0.00271712
-0.00159187
-0.000521677
-1.36984
-1.31652
-1.26514
-1.21564
-1.16794
-1.12198
-1.07769
-1.03502
-0.993906
-0.95429
-0.916118
-0.879338
-0.843898
-0.809751
-0.776848
-0.745145
-0.714598
-0.685165
-0.656804
-0.629478
-0.603148
-0.577777
-0.553332
-0.529778
-0.507082
-0.485214
-0.464144
-0.443841
-0.424279
-0.405429
-0.387267
-0.369768
-0.352906
-0.336659
-0.321004
-0.30592
-0.291385
-0.277381
-0.263887
-0.250886
-0.238358
-0.226287
-0.214656
-0.203449
-0.192651
-0.182246
-0.172221
-0.162561
-0.153253
-0.144285
-0.135643
-0.127317
-0.119294
-0.111564
-0.104115
-0.0969384
-0.0900231
-0.0833599
-0.0769397
-0.0707535
-0.0647929
-0.0590495
-0.0535156
-0.0490611
-0.0456683
-0.0424415
-0.0393727
-0.0364539
-0.033678
-0.0310379
-0.028527
-0.0261389
-0.0238677
-0.0217076
-0.0196531
-0.0176993
-0.015841
-0.0140736
-0.0123927
-0.010794
-0.0092736
-0.00782755
-0.00645226
-0.00514426
-0.00390026
-0.00271712
-0.00159187
-0.000521677
-1.36984
-1.31652
-1.26514
-1.21564
-1.16794
-1.12198
-1.07769
-1.03502
-0.993906
-0.95429
-0.916118
-0.879338
-0.843898
-0.809751
-0.776848
-0.745145
-0.714598
-0.685165
-0.656804
-0.629478
-0.603148
-0.577777
-0.553332
-0.529778
-0.507082
-0.485214
-0.464144
-0.443841
-0.424279
-0.405429
-0.387267
-0.369768
-0.352906
-0.336659
-0.321004
-0.30592
-0.291385
-0.277381
-0.263887
-0.250886
-0.238358
-0.226287
-0.214656
-0.203449
-0.192651
-0.182246
-0.172221
-0.162561
-0.153253
-0.144285
-0.135643
-0.127317
-0.119294
-0.111564
-0.104115
-0.0969384
-0.0900231
-0.0833599
-0.0769397
-0.0707535
-0.0647929
-0.0590495
-0.0535156
-0.0490611
-0.0456683
-0.0424415
-0.0393727
-0.0364539
-0.033678
-0.0310379
-0.028527
-0.0261389
-0.0238677
-0.0217076
-0.0196531
-0.0176993
-0.015841
-0.0140736
-0.0123927
-0.010794
-0.0092736
-0.00782755
-0.00645226
-0.00514426
-0.00390026
-0.00271712
-0.00159187
-0.000521677
-1.36984
-1.31652
-1.26514
-1.21564
-1.16794
-1.12198
-1.07769
-1.03502
-0.993906
-0.95429
-0.916118
-0.879338
-0.843898
-0.809751
-0.776848
-0.745145
-0.714598
-0.685165
-0.656804
-0.629478
-0.603148
-0.577777
-0.553332
-0.529778
-0.507082
-0.485214
-0.464144
-0.443841
-0.424279
-0.405429
-0.387267
-0.369768
-0.352906
-0.336659
-0.321004
-0.30592
-0.291385
-0.277381
-0.263887
-0.250886
-0.238358
-0.226287
-0.214656
-0.203449
-0.192651
-0.182246
-0.172221
-0.162561
-0.153253
-0.144285
-0.135643
-0.127317
-0.119294
-0.111564
-0.104115
-0.0969384
-0.0900231
-0.0833599
-0.0769397
-0.0707535
-0.0647929
-0.0590495
-0.0535156
-0.0490611
-0.0456683
-0.0424415
-0.0393727
-0.0364539
-0.033678
-0.0310379
-0.028527
-0.0261389
-0.0238677
-0.0217076
-0.0196531
-0.0176993
-0.015841
-0.0140736
-0.0123927
-0.010794
-0.0092736
-0.00782755
-0.00645226
-0.00514426
-0.00390026
-0.00271712
-0.00159187
-0.000521677
-1.36984
-1.31652
-1.26514
-1.21564
-1.16794
-1.12198
-1.07769
-1.03502
-0.993906
-0.95429
-0.916118
-0.879338
-0.843898
-0.809751
-0.776848
-0.745145
-0.714598
-0.685165
-0.656804
-0.629478
-0.603148
-0.577777
-0.553332
-0.529778
-0.507082
-0.485214
-0.464144
-0.443841
-0.424279
-0.405429
-0.387267
-0.369768
-0.352906
-0.336659
-0.321004
-0.30592
-0.291385
-0.277381
-0.263887
-0.250886
-0.238358
-0.226287
-0.214656
-0.203449
-0.192651
-0.182246
-0.172221
-0.162561
-0.153253
-0.144285
-0.135643
-0.127317
-0.119294
-0.111564
-0.104115
-0.0969384
-0.0900231
-0.0833599
-0.0769397
-0.0707535
-0.0647929
-0.0590495
-0.0535156
-0.0490611
-0.0456683
-0.0424415
-0.0393727
-0.0364539
-0.033678
-0.0310379
-0.028527
-0.0261389
-0.0238677
-0.0217076
-0.0196531
-0.0176993
-0.015841
-0.0140736
-0.0123927
-0.010794
-0.0092736
-0.00782755
-0.00645226
-0.00514426
-0.00390026
-0.00271712
-0.00159187
-0.000521677
-1.36984
-1.31652
-1.26514
-1.21564
-1.16794
-1.12198
-1.07769
-1.03502
-0.993906
-0.95429
-0.916118
-0.879338
-0.843898
-0.809751
-0.776848
-0.745145
-0.714598
-0.685165
-0.656804
-0.629478
-0.603148
-0.577777
-0.553332
-0.529778
-0.507082
-0.485214
-0.464144
-0.443841
-0.424279
-0.405429
-0.387267
-0.369768
-0.352906
-0.336659
-0.321004
-0.30592
-0.291385
-0.277381
-0.263887
-0.250886
-0.238358
-0.226287
-0.214656
-0.203449
-0.192651
-0.182246
-0.172221
-0.162561
-0.153253
-0.144285
-0.135643
-0.127317
-0.119294
-0.111564
-0.104115
-0.0969384
-0.0900231
-0.0833599
-0.0769397
-0.0707535
-0.0647929
-0.0590495
-0.0535156
-0.0490611
-0.0456683
-0.0424415
-0.0393727
-0.0364539
-0.033678
-0.0310379
-0.028527
-0.0261389
-0.0238677
-0.0217076
-0.0196531
-0.0176993
-0.015841
-0.0140736
-0.0123927
-0.010794
-0.0092736
-0.00782755
-0.00645226
-0.00514426
-0.00390026
-0.00271712
-0.00159187
-0.000521677
-1.36984
-1.31652
-1.26514
-1.21564
-1.16794
-1.12198
-1.07769
-1.03502
-0.993906
-0.95429
-0.916118
-0.879338
-0.843898
-0.809751
-0.776848
-0.745145
-0.714598
-0.685165
-0.656804
-0.629478
-0.603148
-0.577777
-0.553332
-0.529778
-0.507082
-0.485214
-0.464144
-0.443841
-0.424279
-0.405429
-0.387267
-0.369768
-0.352906
-0.336659
-0.321004
-0.30592
-0.291385
-0.277381
-0.263887
-0.250886
-0.238358
-0.226287
-0.214656
-0.203449
-0.192651
-0.182246
-0.172221
-0.162561
-0.153253
-0.144285
-0.135643
-0.127317
-0.119294
-0.111564
-0.104115
-0.0969384
-0.0900231
-0.0833599
-0.0769397
-0.0707535
-0.0647929
-0.0590495
-0.0535156
-0.0490611
-0.0456683
-0.0424415
-0.0393727
-0.0364539
-0.033678
-0.0310379
-0.028527
-0.0261389
-0.0238677
-0.0217076
-0.0196531
-0.0176993
-0.015841
-0.0140736
-0.0123927
-0.010794
-0.0092736
-0.00782755
-0.00645226
-0.00514426
-0.00390026
-0.00271712
-0.00159187
-0.000521677
-1.36984
-1.31652
-1.26514
-1.21564
-1.16794
-1.12198
-1.07769
-1.03502
-0.993906
-0.95429
-0.916118
-0.879338
-0.843898
-0.809751
-0.776848
-0.745145
-0.714598
-0.685165
-0.656804
-0.629478
-0.603148
-0.577777
-0.553332
-0.529778
-0.507082
-0.485214
-0.464144
-0.443841
-0.424279
-0.405429
-0.387267
-0.369768
-0.352906
-0.336659
-0.321004
-0.30592
-0.291385
-0.277381
-0.263887
-0.250886
-0.238358
-0.226287
-0.214656
-0.203449
-0.192651
-0.182246
-0.172221
-0.162561
-0.153253
-0.144285
-0.135643
-0.127317
-0.119294
-0.111564
-0.104115
-0.0969384
-0.0900231
-0.0833599
-0.0769397
-0.0707535
-0.0647929
-0.0590495
-0.0535156
-0.0490611
-0.0456683
-0.0424415
-0.0393727
-0.0364539
-0.033678
-0.0310379
-0.028527
-0.0261389
-0.0238677
-0.0217076
-0.0196531
-0.0176993
-0.015841
-0.0140736
-0.0123927
-0.010794
-0.0092736
-0.00782755
-0.00645226
-0.00514426
-0.00390026
-0.00271712
-0.00159187
-0.000521677
-1.36984
-1.31652
-1.26514
-1.21564
-1.16794
-1.12198
-1.07769
-1.03502
-0.993906
-0.95429
-0.916118
-0.879338
-0.843898
-0.809751
-0.776848
-0.745145
-0.714598
-0.685165
-0.656804
-0.629478
-0.603148
-0.577777
-0.553332
-0.529778
-0.507082
-0.485214
-0.464144
-0.443841
-0.424279
-0.405429
-0.387267
-0.369768
-0.352906
-0.336659
-0.321004
-0.30592
-0.291385
-0.277381
-0.263887
-0.250886
-0.238358
-0.226287
-0.214656
-0.203449
-0.192651
-0.182246
-0.172221
-0.162561
-0.153253
-0.144285
-0.135643
-0.127317
-0.119294
-0.111564
-0.104115
-0.0969384
-0.0900231
-0.0833599
-0.0769397
-0.0707535
-0.0647929
-0.0590495
-0.0535156
-0.0490611
-0.0456683
-0.0424415
-0.0393727
-0.0364539
-0.033678
-0.0310379
-0.028527
-0.0261389
-0.0238677
-0.0217076
-0.0196531
-0.0176993
-0.015841
-0.0140736
-0.0123927
-0.010794
-0.0092736
-0.00782755
-0.00645226
-0.00514426
-0.00390026
-0.00271712
-0.00159187
-0.000521677
-1.36984
-1.31652
-1.26514
-1.21564
-1.16794
-1.12198
-1.07769
-1.03502
-0.993906
-0.95429
-0.916118
-0.879338
-0.843898
-0.809751
-0.776848
-0.745145
-0.714598
-0.685165
-0.656804
-0.629478
-0.603148
-0.577777
-0.553332
-0.529778
-0.507082
-0.485214
-0.464144
-0.443841
-0.424279
-0.405429
-0.387267
-0.369768
-0.352906
-0.336659
-0.321004
-0.30592
-0.291385
-0.277381
-0.263887
-0.250886
-0.238358
-0.226287
-0.214656
-0.203449
-0.192651
-0.182246
-0.172221
-0.162561
-0.153253
-0.144285
-0.135643
-0.127317
-0.119294
-0.111564
-0.104115
-0.0969384
-0.0900231
-0.0833599
-0.0769397
-0.0707535
-0.0647929
-0.0590495
-0.0535156
-0.0490611
-0.0456683
-0.0424415
-0.0393727
-0.0364539
-0.033678
-0.0310379
-0.028527
-0.0261389
-0.0238677
-0.0217076
-0.0196531
-0.0176993
-0.015841
-0.0140736
-0.0123927
-0.010794
-0.0092736
-0.00782755
-0.00645226
-0.00514426
-0.00390026
-0.00271712
-0.00159187
-0.000521677
-1.36984
-1.31652
-1.26514
-1.21564
-1.16794
-1.12198
-1.07769
-1.03502
-0.993906
-0.95429
-0.916118
-0.879338
-0.843898
-0.809751
-0.776848
-0.745145
-0.714598
-0.685165
-0.656804
-0.629478
-0.603148
-0.577777
-0.553332
-0.529778
-0.507082
-0.485214
-0.464144
-0.443841
-0.424279
-0.405429
-0.387267
-0.369768
-0.352906
-0.336659
-0.321004
-0.30592
-0.291385
-0.277381
-0.263887
-0.250886
-0.238358
-0.226287
-0.214656
-0.203449
-0.192651
-0.182246
-0.172221
-0.162561
-0.153253
-0.144285
-0.135643
-0.127317
-0.119294
-0.111564
-0.104115
-0.0969384
-0.0900231
-0.0833599
-0.0769397
-0.0707535
-0.0647929
-0.0590495
-0.0535156
-0.0490611
-0.0456683
-0.0424415
-0.0393727
-0.0364539
-0.033678
-0.0310379
-0.028527
-0.0261389
-0.0238677
-0.0217076
-0.0196531
-0.0176993
-0.015841
-0.0140736
-0.0123927
-0.010794
-0.0092736
-0.00782755
-0.00645226
-0.00514426
-0.00390026
-0.00271712
-0.00159187
-0.000521677
-1.36984
-1.31652
-1.26514
-1.21564
-1.16794
-1.12198
-1.07769
-1.03502
-0.993906
-0.95429
-0.916118
-0.879338
-0.843898
-0.809751
-0.776848
-0.745145
-0.714598
-0.685165
-0.656804
-0.629478
-0.603148
-0.577777
-0.553332
-0.529778
-0.507082
-0.485214
-0.464144
-0.443841
-0.424279
-0.405429
-0.387267
-0.369768
-0.352906
-0.336659
-0.321004
-0.30592
-0.291385
-0.277381
-0.263887
-0.250886
-0.238358
-0.226287
-0.214656
-0.203449
-0.192651
-0.182246
-0.172221
-0.162561
-0.153253
-0.144285
-0.135643
-0.127317
-0.119294
-0.111564
-0.104115
-0.0969384
-0.0900231
-0.0833599
-0.0769397
-0.0707535
-0.0647929
-0.0590495
-0.0535156
-0.0490611
-0.0456683
-0.0424415
-0.0393727
-0.0364539
-0.033678
-0.0310379
-0.028527
-0.0261389
-0.0238677
-0.0217076
-0.0196531
-0.0176993
-0.015841
-0.0140736
-0.0123927
-0.010794
-0.0092736
-0.00782755
-0.00645226
-0.00514426
-0.00390026
-0.00271712
-0.00159187
-0.000521677
-1.36984
-1.31652
-1.26514
-1.21564
-1.16794
-1.12198
-1.07769
-1.03502
-0.993906
-0.95429
-0.916118
-0.879338
-0.843898
-0.809751
-0.776848
-0.745145
-0.714598
-0.685165
-0.656804
-0.629478
-0.603148
-0.577777
-0.553332
-0.529778
-0.507082
-0.485214
-0.464144
-0.443841
-0.424279
-0.405429
-0.387267
-0.369768
-0.352906
-0.336659
-0.321004
-0.30592
-0.291385
-0.277381
-0.263887
-0.250886
-0.238358
-0.226287
-0.214656
-0.203449
-0.192651
-0.182246
-0.172221
-0.162561
-0.153253
-0.144285
-0.135643
-0.127317
-0.119294
-0.111564
-0.104115
-0.0969384
-0.0900231
-0.0833599
-0.0769397
-0.0707535
-0.0647929
-0.0590495
-0.0535156
-0.0490611
-0.0456683
-0.0424415
-0.0393727
-0.0364539
-0.033678
-0.0310379
-0.028527
-0.0261389
-0.0238677
-0.0217076
-0.0196531
-0.0176993
-0.015841
-0.0140736
-0.0123927
-0.010794
-0.0092736
-0.00782755
-0.00645226
-0.00514426
-0.00390026
-0.00271712
-0.00159187
-0.000521677
-1.36984
-1.31652
-1.26514
-1.21564
-1.16794
-1.12198
-1.07769
-1.03502
-0.993906
-0.95429
-0.916118
-0.879338
-0.843898
-0.809751
-0.776848
-0.745145
-0.714598
-0.685165
-0.656804
-0.629478
-0.603148
-0.577777
-0.553332
-0.529778
-0.507082
-0.485214
-0.464144
-0.443841
-0.424279
-0.405429
-0.387267
-0.369768
-0.352906
-0.336659
-0.321004
-0.30592
-0.291385
-0.277381
-0.263887
-0.250886
-0.238358
-0.226287
-0.214656
-0.203449
-0.192651
-0.182246
-0.172221
-0.162561
-0.153253
-0.144285
-0.135643
-0.127317
-0.119294
-0.111564
-0.104115
-0.0969384
-0.0900231
-0.0833599
-0.0769397
-0.0707535
-0.0647929
-0.0590495
-0.0535156
-0.0490611
-0.0456683
-0.0424415
-0.0393727
-0.0364539
-0.033678
-0.0310379
-0.028527
-0.0261389
-0.0238677
-0.0217076
-0.0196531
-0.0176993
-0.015841
-0.0140736
-0.0123927
-0.010794
-0.0092736
-0.00782755
-0.00645226
-0.00514426
-0.00390026
-0.00271712
-0.00159187
-0.000521677
-1.36984
-1.31652
-1.26514
-1.21564
-1.16794
-1.12198
-1.07769
-1.03502
-0.993906
-0.95429
-0.916118
-0.879338
-0.843898
-0.809751
-0.776848
-0.745145
-0.714598
-0.685165
-0.656804
-0.629478
-0.603148
-0.577777
-0.553332
-0.529778
-0.507082
-0.485214
-0.464144
-0.443841
-0.424279
-0.405429
-0.387267
-0.369768
-0.352906
-0.336659
-0.321004
-0.30592
-0.291385
-0.277381
-0.263887
-0.250886
-0.238358
-0.226287
-0.214656
-0.203449
-0.192651
-0.182246
-0.172221
-0.162561
-0.153253
-0.144285
-0.135643
-0.127317
-0.119294
-0.111564
-0.104115
-0.0969384
-0.0900231
-0.0833599
-0.0769397
-0.0707535
-0.0647929
-0.0590495
-0.0535156
-0.0490611
-0.0456683
-0.0424415
-0.0393727
-0.0364539
-0.033678
-0.0310379
-0.028527
-0.0261389
-0.0238677
-0.0217076
-0.0196531
-0.0176993
-0.015841
-0.0140736
-0.0123927
-0.010794
-0.0092736
-0.00782755
-0.00645226
-0.00514426
-0.00390026
-0.00271712
-0.00159187
-0.000521677
-1.36984
-1.31652
-1.26514
-1.21564
-1.16794
-1.12198
-1.07769
-1.03502
-0.993906
-0.95429
-0.916118
-0.879338
-0.843898
-0.809751
-0.776848
-0.745145
-0.714598
-0.685165
-0.656804
-0.629478
-0.603148
-0.577777
-0.553332
-0.529778
-0.507082
-0.485214
-0.464144
-0.443841
-0.424279
-0.405429
-0.387267
-0.369768
-0.352906
-0.336659
-0.321004
-0.30592
-0.291385
-0.277381
-0.263887
-0.250886
-0.238358
-0.226287
-0.214656
-0.203449
-0.192651
-0.182246
-0.172221
-0.162561
-0.153253
-0.144285
-0.135643
-0.127317
-0.119294
-0.111564
-0.104115
-0.0969384
-0.0900231
-0.0833599
-0.0769397
-0.0707535
-0.0647929
-0.0590495
-0.0535156
-0.0490611
-0.0456683
-0.0424415
-0.0393727
-0.0364539
-0.033678
-0.0310379
-0.028527
-0.0261389
-0.0238677
-0.0217076
-0.0196531
-0.0176993
-0.015841
-0.0140736
-0.0123927
-0.010794
-0.0092736
-0.00782755
-0.00645226
-0.00514426
-0.00390026
-0.00271712
-0.00159187
-0.000521677
-1.36984
-1.31652
-1.26514
-1.21564
-1.16794
-1.12198
-1.07769
-1.03502
-0.993906
-0.95429
-0.916118
-0.879338
-0.843898
-0.809751
-0.776848
-0.745145
-0.714598
-0.685165
-0.656804
-0.629478
-0.603148
-0.577777
-0.553332
-0.529778
-0.507082
-0.485214
-0.464144
-0.443841
-0.424279
-0.405429
-0.387267
-0.369768
-0.352906
-0.336659
-0.321004
-0.30592
-0.291385
-0.277381
-0.263887
-0.250886
-0.238358
-0.226287
-0.214656
-0.203449
-0.192651
-0.182246
-0.172221
-0.162561
-0.153253
-0.144285
-0.135643
-0.127317
-0.119294
-0.111564
-0.104115
-0.0969384
-0.0900231
-0.0833599
-0.0769397
-0.0707535
-0.0647929
-0.0590495
-0.0535156
-0.0490611
-0.0456683
-0.0424415
-0.0393727
-0.0364539
-0.033678
-0.0310379
-0.028527
-0.0261389
-0.0238677
-0.0217076
-0.0196531
-0.0176993
-0.015841
-0.0140736
-0.0123927
-0.010794
-0.0092736
-0.00782755
-0.00645226
-0.00514426
-0.00390026
-0.00271712
-0.00159187
-0.000521677
-1.36984
-1.31652
-1.26514
-1.21564
-1.16794
-1.12198
-1.07769
-1.03502
-0.993906
-0.95429
-0.916118
-0.879338
-0.843898
-0.809751
-0.776848
-0.745145
-0.714598
-0.685165
-0.656804
-0.629478
-0.603148
-0.577777
-0.553332
-0.529778
-0.507082
-0.485214
-0.464144
-0.443841
-0.424279
-0.405429
-0.387267
-0.369768
-0.352906
-0.336659
-0.321004
-0.30592
-0.291385
-0.277381
-0.263887
-0.250886
-0.238358
-0.226287
-0.214656
-0.203449
-0.192651
-0.182246
-0.172221
-0.162561
-0.153253
-0.144285
-0.135643
-0.127317
-0.119294
-0.111564
-0.104115
-0.0969384
-0.0900231
-0.0833599
-0.0769397
-0.0707535
-0.0647929
-0.0590495
-0.0535156
-0.0490611
-0.0456683
-0.0424415
-0.0393727
-0.0364539
-0.033678
-0.0310379
-0.028527
-0.0261389
-0.0238677
-0.0217076
-0.0196531
-0.0176993
-0.015841
-0.0140736
-0.0123927
-0.010794
-0.0092736
-0.00782755
-0.00645226
-0.00514426
-0.00390026
-0.00271712
-0.00159187
-0.000521677
-1.36984
-1.31652
-1.26514
-1.21564
-1.16794
-1.12198
-1.07769
-1.03502
-0.993906
-0.95429
-0.916118
-0.879338
-0.843898
-0.809751
-0.776848
-0.745145
-0.714598
-0.685165
-0.656804
-0.629478
-0.603148
-0.577777
-0.553332
-0.529778
-0.507082
-0.485214
-0.464144
-0.443841
-0.424279
-0.405429
-0.387267
-0.369768
-0.352906
-0.336659
-0.321004
-0.30592
-0.291385
-0.277381
-0.263887
-0.250886
-0.238358
-0.226287
-0.214656
-0.203449
-0.192651
-0.182246
-0.172221
-0.162561
-0.153253
-0.144285
-0.135643
-0.127317
-0.119294
-0.111564
-0.104115
-0.0969384
-0.0900231
-0.0833599
-0.0769397
-0.0707535
-0.0647929
-0.0590495
-0.0535156
-0.0490611
-0.0456683
-0.0424415
-0.0393727
-0.0364539
-0.033678
-0.0310379
-0.028527
-0.0261389
-0.0238677
-0.0217076
-0.0196531
-0.0176993
-0.015841
-0.0140736
-0.0123927
-0.010794
-0.0092736
-0.00782755
-0.00645226
-0.00514426
-0.00390026
-0.00271712
-0.00159187
-0.000521677
-1.36984
-1.31652
-1.26514
-1.21564
-1.16794
-1.12198
-1.07769
-1.03502
-0.993906
-0.95429
-0.916118
-0.879338
-0.843898
-0.809751
-0.776848
-0.745145
-0.714598
-0.685165
-0.656804
-0.629478
-0.603148
-0.577777
-0.553332
-0.529778
-0.507082
-0.485214
-0.464144
-0.443841
-0.424279
-0.405429
-0.387267
-0.369768
-0.352906
-0.336659
-0.321004
-0.30592
-0.291385
-0.277381
-0.263887
-0.250886
-0.238358
-0.226287
-0.214656
-0.203449
-0.192651
-0.182246
-0.172221
-0.162561
-0.153253
-0.144285
-0.135643
-0.127317
-0.119294
-0.111564
-0.104115
-0.0969384
-0.0900231
-0.0833599
-0.0769397
-0.0707535
-0.0647929
-0.0590495
-0.0535156
-0.0490611
-0.0456683
-0.0424415
-0.0393727
-0.0364539
-0.033678
-0.0310379
-0.028527
-0.0261389
-0.0238677
-0.0217076
-0.0196531
-0.0176993
-0.015841
-0.0140736
-0.0123927
-0.010794
-0.0092736
-0.00782755
-0.00645226
-0.00514426
-0.00390026
-0.00271712
-0.00159187
-0.000521677
-1.36984
-1.31652
-1.26514
-1.21564
-1.16794
-1.12198
-1.07769
-1.03502
-0.993906
-0.95429
-0.916118
-0.879338
-0.843898
-0.809751
-0.776848
-0.745145
-0.714598
-0.685165
-0.656804
-0.629478
-0.603148
-0.577777
-0.553332
-0.529778
-0.507082
-0.485214
-0.464144
-0.443841
-0.424279
-0.405429
-0.387267
-0.369768
-0.352906
-0.336659
-0.321004
-0.30592
-0.291385
-0.277381
-0.263887
-0.250886
-0.238358
-0.226287
-0.214656
-0.203449
-0.192651
-0.182246
-0.172221
-0.162561
-0.153253
-0.144285
-0.135643
-0.127317
-0.119294
-0.111564
-0.104115
-0.0969384
-0.0900231
-0.0833599
-0.0769397
-0.0707535
-0.0647929
-0.0590495
-0.0535156
-0.0490611
-0.0456683
-0.0424415
-0.0393727
-0.0364539
-0.033678
-0.0310379
-0.028527
-0.0261389
-0.0238677
-0.0217076
-0.0196531