/*--------------------------------*- C++ -*----------------------------------*\
| =========                 |                                                 |
| \\      /  F ield         | OpenFOAM: The Open Source CFD Toolbox           |
|  \\    /   O peration     | Version:  5.x                                   |
|   \\  /    A nd           | Web:      www.OpenFOAM.org                      |
|    \\/     M anipulation  |                                                 |
\*---------------------------------------------------------------------------*/
FoamFile
{
    version     2.0;
    format      ascii;
    class       volVectorField;
    location    "constant/polyMesh";
    object      Cxy;
}
// * * * * * * * * * * * * * * * * * * * * * * * * * * * * * * * * * * * * * //

dimensions      [0 1 0 0 0 0 0];

internalField   nonuniform List<vector> 
130184
(
(-1.64973 0.00641723 0.003175)
(-1.64973 0.0065584 0.003175)
(-1.64973 0.00671369 0.003175)
(-1.64973 0.00688451 0.003175)
(-1.64973 0.00707241 0.003175)
(-1.64973 0.0072791 0.003175)
(-1.64973 0.00750646 0.003175)
(-1.64973 0.00775656 0.003175)
(-1.64973 0.00803167 0.003175)
(-1.64973 0.00833429 0.003175)
(-1.64973 0.00866717 0.003175)
(-1.64973 0.00903333 0.003175)
(-1.64973 0.00943612 0.003175)
(-1.64973 0.00987918 0.003175)
(-1.64973 0.0103665 0.003175)
(-1.64973 0.0109027 0.003175)
(-1.64973 0.0114924 0.003175)
(-1.64973 0.0121411 0.003175)
(-1.64973 0.0128546 0.003175)
(-1.64973 0.0136395 0.003175)
(-1.64973 0.0145029 0.003175)
(-1.64973 0.0154527 0.003175)
(-1.64973 0.0164974 0.003175)
(-1.64973 0.0176466 0.003175)
(-1.64973 0.0189107 0.003175)
(-1.64973 0.0203012 0.003175)
(-1.64973 0.0218308 0.003175)
(-1.64973 0.0235133 0.003175)
(-1.64973 0.0253641 0.003175)
(-1.64973 0.0274 0.003175)
(-1.64973 0.0296394 0.003175)
(-1.64973 0.0321028 0.003175)
(-1.64973 0.0348125 0.003175)
(-1.64973 0.0377932 0.003175)
(-1.64973 0.041072 0.003175)
(-1.64973 0.0446787 0.003175)
(-1.64973 0.048646 0.003175)
(-1.64973 0.05301 0.003175)
(-1.64973 0.0578105 0.003175)
(-1.64973 0.0628395 0.003175)
(-1.64973 0.06764 0.003175)
(-1.64973 0.072004 0.003175)
(-1.64973 0.0759713 0.003175)
(-1.64973 0.079578 0.003175)
(-1.64973 0.0828568 0.003175)
(-1.64973 0.0858375 0.003175)
(-1.64973 0.0885472 0.003175)
(-1.64973 0.0910106 0.003175)
(-1.64973 0.09325 0.003175)
(-1.64973 0.0952859 0.003175)
(-1.64973 0.0971367 0.003175)
(-1.64973 0.0988192 0.003175)
(-1.64973 0.100349 0.003175)
(-1.64973 0.101739 0.003175)
(-1.64973 0.103003 0.003175)
(-1.64973 0.104153 0.003175)
(-1.64973 0.105197 0.003175)
(-1.64973 0.106147 0.003175)
(-1.64973 0.10701 0.003175)
(-1.64973 0.107795 0.003175)
(-1.64973 0.108509 0.003175)
(-1.64973 0.109158 0.003175)
(-1.64973 0.109747 0.003175)
(-1.64973 0.110283 0.003175)
(-1.64973 0.110771 0.003175)
(-1.64973 0.111214 0.003175)
(-1.64973 0.111617 0.003175)
(-1.64973 0.111983 0.003175)
(-1.64973 0.112316 0.003175)
(-1.64973 0.112618 0.003175)
(-1.64973 0.112893 0.003175)
(-1.64973 0.113144 0.003175)
(-1.64973 0.113371 0.003175)
(-1.64973 0.113578 0.003175)
(-1.64973 0.113765 0.003175)
(-1.64973 0.113936 0.003175)
(-1.64973 0.114092 0.003175)
(-1.64973 0.114233 0.003175)
(-1.64719 0.00641723 0.003175)
(-1.64719 0.0065584 0.003175)
(-1.64719 0.00671369 0.003175)
(-1.64719 0.00688451 0.003175)
(-1.64719 0.00707241 0.003175)
(-1.64719 0.0072791 0.003175)
(-1.64719 0.00750646 0.003175)
(-1.64719 0.00775656 0.003175)
(-1.64719 0.00803167 0.003175)
(-1.64719 0.00833429 0.003175)
(-1.64719 0.00866717 0.003175)
(-1.64719 0.00903333 0.003175)
(-1.64719 0.00943612 0.003175)
(-1.64719 0.00987918 0.003175)
(-1.64719 0.0103665 0.003175)
(-1.64719 0.0109027 0.003175)
(-1.64719 0.0114924 0.003175)
(-1.64719 0.0121411 0.003175)
(-1.64719 0.0128546 0.003175)
(-1.64719 0.0136395 0.003175)
(-1.64719 0.0145029 0.003175)
(-1.64719 0.0154527 0.003175)
(-1.64719 0.0164974 0.003175)
(-1.64719 0.0176466 0.003175)
(-1.64719 0.0189107 0.003175)
(-1.64719 0.0203012 0.003175)
(-1.64719 0.0218308 0.003175)
(-1.64719 0.0235133 0.003175)
(-1.64719 0.0253641 0.003175)
(-1.64719 0.0274 0.003175)
(-1.64719 0.0296394 0.003175)
(-1.64719 0.0321028 0.003175)
(-1.64719 0.0348125 0.003175)
(-1.64719 0.0377932 0.003175)
(-1.64719 0.041072 0.003175)
(-1.64719 0.0446787 0.003175)
(-1.64719 0.048646 0.003175)
(-1.64719 0.05301 0.003175)
(-1.64719 0.0578105 0.003175)
(-1.64719 0.0628395 0.003175)
(-1.64719 0.06764 0.003175)
(-1.64719 0.072004 0.003175)
(-1.64719 0.0759713 0.003175)
(-1.64719 0.079578 0.003175)
(-1.64719 0.0828568 0.003175)
(-1.64719 0.0858375 0.003175)
(-1.64719 0.0885472 0.003175)
(-1.64719 0.0910106 0.003175)
(-1.64719 0.09325 0.003175)
(-1.64719 0.0952859 0.003175)
(-1.64719 0.0971367 0.003175)
(-1.64719 0.0988192 0.003175)
(-1.64719 0.100349 0.003175)
(-1.64719 0.101739 0.003175)
(-1.64719 0.103003 0.003175)
(-1.64719 0.104153 0.003175)
(-1.64719 0.105197 0.003175)
(-1.64719 0.106147 0.003175)
(-1.64719 0.10701 0.003175)
(-1.64719 0.107795 0.003175)
(-1.64719 0.108509 0.003175)
(-1.64719 0.109158 0.003175)
(-1.64719 0.109747 0.003175)
(-1.64719 0.110283 0.003175)
(-1.64719 0.110771 0.003175)
(-1.64719 0.111214 0.003175)
(-1.64719 0.111617 0.003175)
(-1.64719 0.111983 0.003175)
(-1.64719 0.112316 0.003175)
(-1.64719 0.112618 0.003175)
(-1.64719 0.112893 0.003175)
(-1.64719 0.113144 0.003175)
(-1.64719 0.113371 0.003175)
(-1.64719 0.113578 0.003175)
(-1.64719 0.113765 0.003175)
(-1.64719 0.113936 0.003175)
(-1.64719 0.114092 0.003175)
(-1.64719 0.114233 0.003175)
(-1.64465 0.00641723 0.003175)
(-1.64465 0.0065584 0.003175)
(-1.64465 0.00671369 0.003175)
(-1.64465 0.00688451 0.003175)
(-1.64465 0.00707241 0.003175)
(-1.64465 0.0072791 0.003175)
(-1.64465 0.00750646 0.003175)
(-1.64465 0.00775656 0.003175)
(-1.64465 0.00803167 0.003175)
(-1.64465 0.00833429 0.003175)
(-1.64465 0.00866717 0.003175)
(-1.64465 0.00903333 0.003175)
(-1.64465 0.00943612 0.003175)
(-1.64465 0.00987918 0.003175)
(-1.64465 0.0103665 0.003175)
(-1.64465 0.0109027 0.003175)
(-1.64465 0.0114924 0.003175)
(-1.64465 0.0121411 0.003175)
(-1.64465 0.0128546 0.003175)
(-1.64465 0.0136395 0.003175)
(-1.64465 0.0145029 0.003175)
(-1.64465 0.0154527 0.003175)
(-1.64465 0.0164974 0.003175)
(-1.64465 0.0176466 0.003175)
(-1.64465 0.0189107 0.003175)
(-1.64465 0.0203012 0.003175)
(-1.64465 0.0218308 0.003175)
(-1.64465 0.0235133 0.003175)
(-1.64465 0.0253641 0.003175)
(-1.64465 0.0274 0.003175)
(-1.64465 0.0296394 0.003175)
(-1.64465 0.0321028 0.003175)
(-1.64465 0.0348125 0.003175)
(-1.64465 0.0377932 0.003175)
(-1.64465 0.041072 0.003175)
(-1.64465 0.0446787 0.003175)
(-1.64465 0.048646 0.003175)
(-1.64465 0.05301 0.003175)
(-1.64465 0.0578105 0.003175)
(-1.64465 0.0628395 0.003175)
(-1.64465 0.06764 0.003175)
(-1.64465 0.072004 0.003175)
(-1.64465 0.0759713 0.003175)
(-1.64465 0.079578 0.003175)
(-1.64465 0.0828568 0.003175)
(-1.64465 0.0858375 0.003175)
(-1.64465 0.0885472 0.003175)
(-1.64465 0.0910106 0.003175)
(-1.64465 0.09325 0.003175)
(-1.64465 0.0952859 0.003175)
(-1.64465 0.0971367 0.003175)
(-1.64465 0.0988192 0.003175)
(-1.64465 0.100349 0.003175)
(-1.64465 0.101739 0.003175)
(-1.64465 0.103003 0.003175)
(-1.64465 0.104153 0.003175)
(-1.64465 0.105197 0.003175)
(-1.64465 0.106147 0.003175)
(-1.64465 0.10701 0.003175)
(-1.64465 0.107795 0.003175)
(-1.64465 0.108509 0.003175)
(-1.64465 0.109158 0.003175)
(-1.64465 0.109747 0.003175)
(-1.64465 0.110283 0.003175)
(-1.64465 0.110771 0.003175)
(-1.64465 0.111214 0.003175)
(-1.64465 0.111617 0.003175)
(-1.64465 0.111983 0.003175)
(-1.64465 0.112316 0.003175)
(-1.64465 0.112618 0.003175)
(-1.64465 0.112893 0.003175)
(-1.64465 0.113144 0.003175)
(-1.64465 0.113371 0.003175)
(-1.64465 0.113578 0.003175)
(-1.64465 0.113765 0.003175)
(-1.64465 0.113936 0.003175)
(-1.64465 0.114092 0.003175)
(-1.64465 0.114233 0.003175)
(-1.64211 0.00641723 0.003175)
(-1.64211 0.0065584 0.003175)
(-1.64211 0.00671369 0.003175)
(-1.64211 0.00688451 0.003175)
(-1.64211 0.00707241 0.003175)
(-1.64211 0.0072791 0.003175)
(-1.64211 0.00750646 0.003175)
(-1.64211 0.00775656 0.003175)
(-1.64211 0.00803167 0.003175)
(-1.64211 0.00833429 0.003175)
(-1.64211 0.00866717 0.003175)
(-1.64211 0.00903333 0.003175)
(-1.64211 0.00943612 0.003175)
(-1.64211 0.00987918 0.003175)
(-1.64211 0.0103665 0.003175)
(-1.64211 0.0109027 0.003175)
(-1.64211 0.0114924 0.003175)
(-1.64211 0.0121411 0.003175)
(-1.64211 0.0128546 0.003175)
(-1.64211 0.0136395 0.003175)
(-1.64211 0.0145029 0.003175)
(-1.64211 0.0154527 0.003175)
(-1.64211 0.0164974 0.003175)
(-1.64211 0.0176466 0.003175)
(-1.64211 0.0189107 0.003175)
(-1.64211 0.0203012 0.003175)
(-1.64211 0.0218308 0.003175)
(-1.64211 0.0235133 0.003175)
(-1.64211 0.0253641 0.003175)
(-1.64211 0.0274 0.003175)
(-1.64211 0.0296394 0.003175)
(-1.64211 0.0321028 0.003175)
(-1.64211 0.0348125 0.003175)
(-1.64211 0.0377932 0.003175)
(-1.64211 0.041072 0.003175)
(-1.64211 0.0446787 0.003175)
(-1.64211 0.048646 0.003175)
(-1.64211 0.05301 0.003175)
(-1.64211 0.0578105 0.003175)
(-1.64211 0.0628395 0.003175)
(-1.64211 0.06764 0.003175)
(-1.64211 0.072004 0.003175)
(-1.64211 0.0759713 0.003175)
(-1.64211 0.079578 0.003175)
(-1.64211 0.0828568 0.003175)
(-1.64211 0.0858375 0.003175)
(-1.64211 0.0885472 0.003175)
(-1.64211 0.0910106 0.003175)
(-1.64211 0.09325 0.003175)
(-1.64211 0.0952859 0.003175)
(-1.64211 0.0971367 0.003175)
(-1.64211 0.0988192 0.003175)
(-1.64211 0.100349 0.003175)
(-1.64211 0.101739 0.003175)
(-1.64211 0.103003 0.003175)
(-1.64211 0.104153 0.003175)
(-1.64211 0.105197 0.003175)
(-1.64211 0.106147 0.003175)
(-1.64211 0.10701 0.003175)
(-1.64211 0.107795 0.003175)
(-1.64211 0.108509 0.003175)
(-1.64211 0.109158 0.003175)
(-1.64211 0.109747 0.003175)
(-1.64211 0.110283 0.003175)
(-1.64211 0.110771 0.003175)
(-1.64211 0.111214 0.003175)
(-1.64211 0.111617 0.003175)
(-1.64211 0.111983 0.003175)
(-1.64211 0.112316 0.003175)
(-1.64211 0.112618 0.003175)
(-1.64211 0.112893 0.003175)
(-1.64211 0.113144 0.003175)
(-1.64211 0.113371 0.003175)
(-1.64211 0.113578 0.003175)
(-1.64211 0.113765 0.003175)
(-1.64211 0.113936 0.003175)
(-1.64211 0.114092 0.003175)
(-1.64211 0.114233 0.003175)
(-1.63957 0.00641723 0.003175)
(-1.63957 0.0065584 0.003175)
(-1.63957 0.00671369 0.003175)
(-1.63957 0.00688451 0.003175)
(-1.63957 0.00707241 0.003175)
(-1.63957 0.0072791 0.003175)
(-1.63957 0.00750646 0.003175)
(-1.63957 0.00775656 0.003175)
(-1.63957 0.00803167 0.003175)
(-1.63957 0.00833429 0.003175)
(-1.63957 0.00866717 0.003175)
(-1.63957 0.00903333 0.003175)
(-1.63957 0.00943612 0.003175)
(-1.63957 0.00987918 0.003175)
(-1.63957 0.0103665 0.003175)
(-1.63957 0.0109027 0.003175)
(-1.63957 0.0114924 0.003175)
(-1.63957 0.0121411 0.003175)
(-1.63957 0.0128546 0.003175)
(-1.63957 0.0136395 0.003175)
(-1.63957 0.0145029 0.003175)
(-1.63957 0.0154527 0.003175)
(-1.63957 0.0164974 0.003175)
(-1.63957 0.0176466 0.003175)
(-1.63957 0.0189107 0.003175)
(-1.63957 0.0203012 0.003175)
(-1.63957 0.0218308 0.003175)
(-1.63957 0.0235133 0.003175)
(-1.63957 0.0253641 0.003175)
(-1.63957 0.0274 0.003175)
(-1.63957 0.0296394 0.003175)
(-1.63957 0.0321028 0.003175)
(-1.63957 0.0348125 0.003175)
(-1.63957 0.0377932 0.003175)
(-1.63957 0.041072 0.003175)
(-1.63957 0.0446787 0.003175)
(-1.63957 0.048646 0.003175)
(-1.63957 0.05301 0.003175)
(-1.63957 0.0578105 0.003175)
(-1.63957 0.0628395 0.003175)
(-1.63957 0.06764 0.003175)
(-1.63957 0.072004 0.003175)
(-1.63957 0.0759713 0.003175)
(-1.63957 0.079578 0.003175)
(-1.63957 0.0828568 0.003175)
(-1.63957 0.0858375 0.003175)
(-1.63957 0.0885472 0.003175)
(-1.63957 0.0910106 0.003175)
(-1.63957 0.09325 0.003175)
(-1.63957 0.0952859 0.003175)
(-1.63957 0.0971367 0.003175)
(-1.63957 0.0988192 0.003175)
(-1.63957 0.100349 0.003175)
(-1.63957 0.101739 0.003175)
(-1.63957 0.103003 0.003175)
(-1.63957 0.104153 0.003175)
(-1.63957 0.105197 0.003175)
(-1.63957 0.106147 0.003175)
(-1.63957 0.10701 0.003175)
(-1.63957 0.107795 0.003175)
(-1.63957 0.108509 0.003175)
(-1.63957 0.109158 0.003175)
(-1.63957 0.109747 0.003175)
(-1.63957 0.110283 0.003175)
(-1.63957 0.110771 0.003175)
(-1.63957 0.111214 0.003175)
(-1.63957 0.111617 0.003175)
(-1.63957 0.111983 0.003175)
(-1.63957 0.112316 0.003175)
(-1.63957 0.112618 0.003175)
(-1.63957 0.112893 0.003175)
(-1.63957 0.113144 0.003175)
(-1.63957 0.113371 0.003175)
(-1.63957 0.113578 0.003175)
(-1.63957 0.113765 0.003175)
(-1.63957 0.113936 0.003175)
(-1.63957 0.114092 0.003175)
(-1.63957 0.114233 0.003175)
(-1.63703 0.00641723 0.003175)
(-1.63703 0.0065584 0.003175)
(-1.63703 0.00671369 0.003175)
(-1.63703 0.00688451 0.003175)
(-1.63703 0.00707241 0.003175)
(-1.63703 0.0072791 0.003175)
(-1.63703 0.00750646 0.003175)
(-1.63703 0.00775656 0.003175)
(-1.63703 0.00803167 0.003175)
(-1.63703 0.00833429 0.003175)
(-1.63703 0.00866717 0.003175)
(-1.63703 0.00903333 0.003175)
(-1.63703 0.00943612 0.003175)
(-1.63703 0.00987918 0.003175)
(-1.63703 0.0103665 0.003175)
(-1.63703 0.0109027 0.003175)
(-1.63703 0.0114924 0.003175)
(-1.63703 0.0121411 0.003175)
(-1.63703 0.0128546 0.003175)
(-1.63703 0.0136395 0.003175)
(-1.63703 0.0145029 0.003175)
(-1.63703 0.0154527 0.003175)
(-1.63703 0.0164974 0.003175)
(-1.63703 0.0176466 0.003175)
(-1.63703 0.0189107 0.003175)
(-1.63703 0.0203012 0.003175)
(-1.63703 0.0218308 0.003175)
(-1.63703 0.0235133 0.003175)
(-1.63703 0.0253641 0.003175)
(-1.63703 0.0274 0.003175)
(-1.63703 0.0296394 0.003175)
(-1.63703 0.0321028 0.003175)
(-1.63703 0.0348125 0.003175)
(-1.63703 0.0377932 0.003175)
(-1.63703 0.041072 0.003175)
(-1.63703 0.0446787 0.003175)
(-1.63703 0.048646 0.003175)
(-1.63703 0.05301 0.003175)
(-1.63703 0.0578105 0.003175)
(-1.63703 0.0628395 0.003175)
(-1.63703 0.06764 0.003175)
(-1.63703 0.072004 0.003175)
(-1.63703 0.0759713 0.003175)
(-1.63703 0.079578 0.003175)
(-1.63703 0.0828568 0.003175)
(-1.63703 0.0858375 0.003175)
(-1.63703 0.0885472 0.003175)
(-1.63703 0.0910106 0.003175)
(-1.63703 0.09325 0.003175)
(-1.63703 0.0952859 0.003175)
(-1.63703 0.0971367 0.003175)
(-1.63703 0.0988192 0.003175)
(-1.63703 0.100349 0.003175)
(-1.63703 0.101739 0.003175)
(-1.63703 0.103003 0.003175)
(-1.63703 0.104153 0.003175)
(-1.63703 0.105197 0.003175)
(-1.63703 0.106147 0.003175)
(-1.63703 0.10701 0.003175)
(-1.63703 0.107795 0.003175)
(-1.63703 0.108509 0.003175)
(-1.63703 0.109158 0.003175)
(-1.63703 0.109747 0.003175)
(-1.63703 0.110283 0.003175)
(-1.63703 0.110771 0.003175)
(-1.63703 0.111214 0.003175)
(-1.63703 0.111617 0.003175)
(-1.63703 0.111983 0.003175)
(-1.63703 0.112316 0.003175)
(-1.63703 0.112618 0.003175)
(-1.63703 0.112893 0.003175)
(-1.63703 0.113144 0.003175)
(-1.63703 0.113371 0.003175)
(-1.63703 0.113578 0.003175)
(-1.63703 0.113765 0.003175)
(-1.63703 0.113936 0.003175)
(-1.63703 0.114092 0.003175)
(-1.63703 0.114233 0.003175)
(-1.63449 0.00641723 0.003175)
(-1.63449 0.0065584 0.003175)
(-1.63449 0.00671369 0.003175)
(-1.63449 0.00688451 0.003175)
(-1.63449 0.00707241 0.003175)
(-1.63449 0.0072791 0.003175)
(-1.63449 0.00750646 0.003175)
(-1.63449 0.00775656 0.003175)
(-1.63449 0.00803167 0.003175)
(-1.63449 0.00833429 0.003175)
(-1.63449 0.00866717 0.003175)
(-1.63449 0.00903333 0.003175)
(-1.63449 0.00943612 0.003175)
(-1.63449 0.00987918 0.003175)
(-1.63449 0.0103665 0.003175)
(-1.63449 0.0109027 0.003175)
(-1.63449 0.0114924 0.003175)
(-1.63449 0.0121411 0.003175)
(-1.63449 0.0128546 0.003175)
(-1.63449 0.0136395 0.003175)
(-1.63449 0.0145029 0.003175)
(-1.63449 0.0154527 0.003175)
(-1.63449 0.0164974 0.003175)
(-1.63449 0.0176466 0.003175)
(-1.63449 0.0189107 0.003175)
(-1.63449 0.0203012 0.003175)
(-1.63449 0.0218308 0.003175)
(-1.63449 0.0235133 0.003175)
(-1.63449 0.0253641 0.003175)
(-1.63449 0.0274 0.003175)
(-1.63449 0.0296394 0.003175)
(-1.63449 0.0321028 0.003175)
(-1.63449 0.0348125 0.003175)
(-1.63449 0.0377932 0.003175)
(-1.63449 0.041072 0.003175)
(-1.63449 0.0446787 0.003175)
(-1.63449 0.048646 0.003175)
(-1.63449 0.05301 0.003175)
(-1.63449 0.0578105 0.003175)
(-1.63449 0.0628395 0.003175)
(-1.63449 0.06764 0.003175)
(-1.63449 0.072004 0.003175)
(-1.63449 0.0759713 0.003175)
(-1.63449 0.079578 0.003175)
(-1.63449 0.0828568 0.003175)
(-1.63449 0.0858375 0.003175)
(-1.63449 0.0885472 0.003175)
(-1.63449 0.0910106 0.003175)
(-1.63449 0.09325 0.003175)
(-1.63449 0.0952859 0.003175)
(-1.63449 0.0971367 0.003175)
(-1.63449 0.0988192 0.003175)
(-1.63449 0.100349 0.003175)
(-1.63449 0.101739 0.003175)
(-1.63449 0.103003 0.003175)
(-1.63449 0.104153 0.003175)
(-1.63449 0.105197 0.003175)
(-1.63449 0.106147 0.003175)
(-1.63449 0.10701 0.003175)
(-1.63449 0.107795 0.003175)
(-1.63449 0.108509 0.003175)
(-1.63449 0.109158 0.003175)
(-1.63449 0.109747 0.003175)
(-1.63449 0.110283 0.003175)
(-1.63449 0.110771 0.003175)
(-1.63449 0.111214 0.003175)
(-1.63449 0.111617 0.003175)
(-1.63449 0.111983 0.003175)
(-1.63449 0.112316 0.003175)
(-1.63449 0.112618 0.003175)
(-1.63449 0.112893 0.003175)
(-1.63449 0.113144 0.003175)
(-1.63449 0.113371 0.003175)
(-1.63449 0.113578 0.003175)
(-1.63449 0.113765 0.003175)
(-1.63449 0.113936 0.003175)
(-1.63449 0.114092 0.003175)
(-1.63449 0.114233 0.003175)
(-1.63195 0.00641723 0.003175)
(-1.63195 0.0065584 0.003175)
(-1.63195 0.00671369 0.003175)
(-1.63195 0.00688451 0.003175)
(-1.63195 0.00707241 0.003175)
(-1.63195 0.0072791 0.003175)
(-1.63195 0.00750646 0.003175)
(-1.63195 0.00775656 0.003175)
(-1.63195 0.00803167 0.003175)
(-1.63195 0.00833429 0.003175)
(-1.63195 0.00866717 0.003175)
(-1.63195 0.00903333 0.003175)
(-1.63195 0.00943612 0.003175)
(-1.63195 0.00987918 0.003175)
(-1.63195 0.0103665 0.003175)
(-1.63195 0.0109027 0.003175)
(-1.63195 0.0114924 0.003175)
(-1.63195 0.0121411 0.003175)
(-1.63195 0.0128546 0.003175)
(-1.63195 0.0136395 0.003175)
(-1.63195 0.0145029 0.003175)
(-1.63195 0.0154527 0.003175)
(-1.63195 0.0164974 0.003175)
(-1.63195 0.0176466 0.003175)
(-1.63195 0.0189107 0.003175)
(-1.63195 0.0203012 0.003175)
(-1.63195 0.0218308 0.003175)
(-1.63195 0.0235133 0.003175)
(-1.63195 0.0253641 0.003175)
(-1.63195 0.0274 0.003175)
(-1.63195 0.0296394 0.003175)
(-1.63195 0.0321028 0.003175)
(-1.63195 0.0348125 0.003175)
(-1.63195 0.0377932 0.003175)
(-1.63195 0.041072 0.003175)
(-1.63195 0.0446787 0.003175)
(-1.63195 0.048646 0.003175)
(-1.63195 0.05301 0.003175)
(-1.63195 0.0578105 0.003175)
(-1.63195 0.0628395 0.003175)
(-1.63195 0.06764 0.003175)
(-1.63195 0.072004 0.003175)
(-1.63195 0.0759713 0.003175)
(-1.63195 0.079578 0.003175)
(-1.63195 0.0828568 0.003175)
(-1.63195 0.0858375 0.003175)
(-1.63195 0.0885472 0.003175)
(-1.63195 0.0910106 0.003175)
(-1.63195 0.09325 0.003175)
(-1.63195 0.0952859 0.003175)
(-1.63195 0.0971367 0.003175)
(-1.63195 0.0988192 0.003175)
(-1.63195 0.100349 0.003175)
(-1.63195 0.101739 0.003175)
(-1.63195 0.103003 0.003175)
(-1.63195 0.104153 0.003175)
(-1.63195 0.105197 0.003175)
(-1.63195 0.106147 0.003175)
(-1.63195 0.10701 0.003175)
(-1.63195 0.107795 0.003175)
(-1.63195 0.108509 0.003175)
(-1.63195 0.109158 0.003175)
(-1.63195 0.109747 0.003175)
(-1.63195 0.110283 0.003175)
(-1.63195 0.110771 0.003175)
(-1.63195 0.111214 0.003175)
(-1.63195 0.111617 0.003175)
(-1.63195 0.111983 0.003175)
(-1.63195 0.112316 0.003175)
(-1.63195 0.112618 0.003175)
(-1.63195 0.112893 0.003175)
(-1.63195 0.113144 0.003175)
(-1.63195 0.113371 0.003175)
(-1.63195 0.113578 0.003175)
(-1.63195 0.113765 0.003175)
(-1.63195 0.113936 0.003175)
(-1.63195 0.114092 0.003175)
(-1.63195 0.114233 0.003175)
(-1.62941 0.00641723 0.003175)
(-1.62941 0.0065584 0.003175)
(-1.62941 0.00671369 0.003175)
(-1.62941 0.00688451 0.003175)
(-1.62941 0.00707241 0.003175)
(-1.62941 0.0072791 0.003175)
(-1.62941 0.00750646 0.003175)
(-1.62941 0.00775656 0.003175)
(-1.62941 0.00803167 0.003175)
(-1.62941 0.00833429 0.003175)
(-1.62941 0.00866717 0.003175)
(-1.62941 0.00903333 0.003175)
(-1.62941 0.00943612 0.003175)
(-1.62941 0.00987918 0.003175)
(-1.62941 0.0103665 0.003175)
(-1.62941 0.0109027 0.003175)
(-1.62941 0.0114924 0.003175)
(-1.62941 0.0121411 0.003175)
(-1.62941 0.0128546 0.003175)
(-1.62941 0.0136395 0.003175)
(-1.62941 0.0145029 0.003175)
(-1.62941 0.0154527 0.003175)
(-1.62941 0.0164974 0.003175)
(-1.62941 0.0176466 0.003175)
(-1.62941 0.0189107 0.003175)
(-1.62941 0.0203012 0.003175)
(-1.62941 0.0218308 0.003175)
(-1.62941 0.0235133 0.003175)
(-1.62941 0.0253641 0.003175)
(-1.62941 0.0274 0.003175)
(-1.62941 0.0296394 0.003175)
(-1.62941 0.0321028 0.003175)
(-1.62941 0.0348125 0.003175)
(-1.62941 0.0377932 0.003175)
(-1.62941 0.041072 0.003175)
(-1.62941 0.0446787 0.003175)
(-1.62941 0.048646 0.003175)
(-1.62941 0.05301 0.003175)
(-1.62941 0.0578105 0.003175)
(-1.62941 0.0628395 0.003175)
(-1.62941 0.06764 0.003175)
(-1.62941 0.072004 0.003175)
(-1.62941 0.0759713 0.003175)
(-1.62941 0.079578 0.003175)
(-1.62941 0.0828568 0.003175)
(-1.62941 0.0858375 0.003175)
(-1.62941 0.0885472 0.003175)
(-1.62941 0.0910106 0.003175)
(-1.62941 0.09325 0.003175)
(-1.62941 0.0952859 0.003175)
(-1.62941 0.0971367 0.003175)
(-1.62941 0.0988192 0.003175)
(-1.62941 0.100349 0.003175)
(-1.62941 0.101739 0.003175)
(-1.62941 0.103003 0.003175)
(-1.62941 0.104153 0.003175)
(-1.62941 0.105197 0.003175)
(-1.62941 0.106147 0.003175)
(-1.62941 0.10701 0.003175)
(-1.62941 0.107795 0.003175)
(-1.62941 0.108509 0.003175)
(-1.62941 0.109158 0.003175)
(-1.62941 0.109747 0.003175)
(-1.62941 0.110283 0.003175)
(-1.62941 0.110771 0.003175)
(-1.62941 0.111214 0.003175)
(-1.62941 0.111617 0.003175)
(-1.62941 0.111983 0.003175)
(-1.62941 0.112316 0.003175)
(-1.62941 0.112618 0.003175)
(-1.62941 0.112893 0.003175)
(-1.62941 0.113144 0.003175)
(-1.62941 0.113371 0.003175)
(-1.62941 0.113578 0.003175)
(-1.62941 0.113765 0.003175)
(-1.62941 0.113936 0.003175)
(-1.62941 0.114092 0.003175)
(-1.62941 0.114233 0.003175)
(-1.62687 0.00641723 0.003175)
(-1.62687 0.0065584 0.003175)
(-1.62687 0.00671369 0.003175)
(-1.62687 0.00688451 0.003175)
(-1.62687 0.00707241 0.003175)
(-1.62687 0.0072791 0.003175)
(-1.62687 0.00750646 0.003175)
(-1.62687 0.00775656 0.003175)
(-1.62687 0.00803167 0.003175)
(-1.62687 0.00833429 0.003175)
(-1.62687 0.00866717 0.003175)
(-1.62687 0.00903333 0.003175)
(-1.62687 0.00943612 0.003175)
(-1.62687 0.00987918 0.003175)
(-1.62687 0.0103665 0.003175)
(-1.62687 0.0109027 0.003175)
(-1.62687 0.0114924 0.003175)
(-1.62687 0.0121411 0.003175)
(-1.62687 0.0128546 0.003175)
(-1.62687 0.0136395 0.003175)
(-1.62687 0.0145029 0.003175)
(-1.62687 0.0154527 0.003175)
(-1.62687 0.0164974 0.003175)
(-1.62687 0.0176466 0.003175)
(-1.62687 0.0189107 0.003175)
(-1.62687 0.0203012 0.003175)
(-1.62687 0.0218308 0.003175)
(-1.62687 0.0235133 0.003175)
(-1.62687 0.0253641 0.003175)
(-1.62687 0.0274 0.003175)
(-1.62687 0.0296394 0.003175)
(-1.62687 0.0321028 0.003175)
(-1.62687 0.0348125 0.003175)
(-1.62687 0.0377932 0.003175)
(-1.62687 0.041072 0.003175)
(-1.62687 0.0446787 0.003175)
(-1.62687 0.048646 0.003175)
(-1.62687 0.05301 0.003175)
(-1.62687 0.0578105 0.003175)
(-1.62687 0.0628395 0.003175)
(-1.62687 0.06764 0.003175)
(-1.62687 0.072004 0.003175)
(-1.62687 0.0759713 0.003175)
(-1.62687 0.079578 0.003175)
(-1.62687 0.0828568 0.003175)
(-1.62687 0.0858375 0.003175)
(-1.62687 0.0885472 0.003175)
(-1.62687 0.0910106 0.003175)
(-1.62687 0.09325 0.003175)
(-1.62687 0.0952859 0.003175)
(-1.62687 0.0971367 0.003175)
(-1.62687 0.0988192 0.003175)
(-1.62687 0.100349 0.003175)
(-1.62687 0.101739 0.003175)
(-1.62687 0.103003 0.003175)
(-1.62687 0.104153 0.003175)
(-1.62687 0.105197 0.003175)
(-1.62687 0.106147 0.003175)
(-1.62687 0.10701 0.003175)
(-1.62687 0.107795 0.003175)
(-1.62687 0.108509 0.003175)
(-1.62687 0.109158 0.003175)
(-1.62687 0.109747 0.003175)
(-1.62687 0.110283 0.003175)
(-1.62687 0.110771 0.003175)
(-1.62687 0.111214 0.003175)
(-1.62687 0.111617 0.003175)
(-1.62687 0.111983 0.003175)
(-1.62687 0.112316 0.003175)
(-1.62687 0.112618 0.003175)
(-1.62687 0.112893 0.003175)
(-1.62687 0.113144 0.003175)
(-1.62687 0.113371 0.003175)
(-1.62687 0.113578 0.003175)
(-1.62687 0.113765 0.003175)
(-1.62687 0.113936 0.003175)
(-1.62687 0.114092 0.003175)
(-1.62687 0.114233 0.003175)
(-1.62433 0.00641723 0.003175)
(-1.62433 0.0065584 0.003175)
(-1.62433 0.00671369 0.003175)
(-1.62433 0.00688451 0.003175)
(-1.62433 0.00707241 0.003175)
(-1.62433 0.0072791 0.003175)
(-1.62433 0.00750646 0.003175)
(-1.62433 0.00775656 0.003175)
(-1.62433 0.00803167 0.003175)
(-1.62433 0.00833429 0.003175)
(-1.62433 0.00866717 0.003175)
(-1.62433 0.00903333 0.003175)
(-1.62433 0.00943612 0.003175)
(-1.62433 0.00987918 0.003175)
(-1.62433 0.0103665 0.003175)
(-1.62433 0.0109027 0.003175)
(-1.62433 0.0114924 0.003175)
(-1.62433 0.0121411 0.003175)
(-1.62433 0.0128546 0.003175)
(-1.62433 0.0136395 0.003175)
(-1.62433 0.0145029 0.003175)
(-1.62433 0.0154527 0.003175)
(-1.62433 0.0164974 0.003175)
(-1.62433 0.0176466 0.003175)
(-1.62433 0.0189107 0.003175)
(-1.62433 0.0203012 0.003175)
(-1.62433 0.0218308 0.003175)
(-1.62433 0.0235133 0.003175)
(-1.62433 0.0253641 0.003175)
(-1.62433 0.0274 0.003175)
(-1.62433 0.0296394 0.003175)
(-1.62433 0.0321028 0.003175)
(-1.62433 0.0348125 0.003175)
(-1.62433 0.0377932 0.003175)
(-1.62433 0.041072 0.003175)
(-1.62433 0.0446787 0.003175)
(-1.62433 0.048646 0.003175)
(-1.62433 0.05301 0.003175)
(-1.62433 0.0578105 0.003175)
(-1.62433 0.0628395 0.003175)
(-1.62433 0.06764 0.003175)
(-1.62433 0.072004 0.003175)
(-1.62433 0.0759713 0.003175)
(-1.62433 0.079578 0.003175)
(-1.62433 0.0828568 0.003175)
(-1.62433 0.0858375 0.003175)
(-1.62433 0.0885472 0.003175)
(-1.62433 0.0910106 0.003175)
(-1.62433 0.09325 0.003175)
(-1.62433 0.0952859 0.003175)
(-1.62433 0.0971367 0.003175)
(-1.62433 0.0988192 0.003175)
(-1.62433 0.100349 0.003175)
(-1.62433 0.101739 0.003175)
(-1.62433 0.103003 0.003175)
(-1.62433 0.104153 0.003175)
(-1.62433 0.105197 0.003175)
(-1.62433 0.106147 0.003175)
(-1.62433 0.10701 0.003175)
(-1.62433 0.107795 0.003175)
(-1.62433 0.108509 0.003175)
(-1.62433 0.109158 0.003175)
(-1.62433 0.109747 0.003175)
(-1.62433 0.110283 0.003175)
(-1.62433 0.110771 0.003175)
(-1.62433 0.111214 0.003175)
(-1.62433 0.111617 0.003175)
(-1.62433 0.111983 0.003175)
(-1.62433 0.112316 0.003175)
(-1.62433 0.112618 0.003175)
(-1.62433 0.112893 0.003175)
(-1.62433 0.113144 0.003175)
(-1.62433 0.113371 0.003175)
(-1.62433 0.113578 0.003175)
(-1.62433 0.113765 0.003175)
(-1.62433 0.113936 0.003175)
(-1.62433 0.114092 0.003175)
(-1.62433 0.114233 0.003175)
(-1.62179 0.00641723 0.003175)
(-1.62179 0.0065584 0.003175)
(-1.62179 0.00671369 0.003175)
(-1.62179 0.00688451 0.003175)
(-1.62179 0.00707241 0.003175)
(-1.62179 0.0072791 0.003175)
(-1.62179 0.00750646 0.003175)
(-1.62179 0.00775656 0.003175)
(-1.62179 0.00803167 0.003175)
(-1.62179 0.00833429 0.003175)
(-1.62179 0.00866717 0.003175)
(-1.62179 0.00903333 0.003175)
(-1.62179 0.00943612 0.003175)
(-1.62179 0.00987918 0.003175)
(-1.62179 0.0103665 0.003175)
(-1.62179 0.0109027 0.003175)
(-1.62179 0.0114924 0.003175)
(-1.62179 0.0121411 0.003175)
(-1.62179 0.0128546 0.003175)
(-1.62179 0.0136395 0.003175)
(-1.62179 0.0145029 0.003175)
(-1.62179 0.0154527 0.003175)
(-1.62179 0.0164974 0.003175)
(-1.62179 0.0176466 0.003175)
(-1.62179 0.0189107 0.003175)
(-1.62179 0.0203012 0.003175)
(-1.62179 0.0218308 0.003175)
(-1.62179 0.0235133 0.003175)
(-1.62179 0.0253641 0.003175)
(-1.62179 0.0274 0.003175)
(-1.62179 0.0296394 0.003175)
(-1.62179 0.0321028 0.003175)
(-1.62179 0.0348125 0.003175)
(-1.62179 0.0377932 0.003175)
(-1.62179 0.041072 0.003175)
(-1.62179 0.0446787 0.003175)
(-1.62179 0.048646 0.003175)
(-1.62179 0.05301 0.003175)
(-1.62179 0.0578105 0.003175)
(-1.62179 0.0628395 0.003175)
(-1.62179 0.06764 0.003175)
(-1.62179 0.072004 0.003175)
(-1.62179 0.0759713 0.003175)
(-1.62179 0.079578 0.003175)
(-1.62179 0.0828568 0.003175)
(-1.62179 0.0858375 0.003175)
(-1.62179 0.0885472 0.003175)
(-1.62179 0.0910106 0.003175)
(-1.62179 0.09325 0.003175)
(-1.62179 0.0952859 0.003175)
(-1.62179 0.0971367 0.003175)
(-1.62179 0.0988192 0.003175)
(-1.62179 0.100349 0.003175)
(-1.62179 0.101739 0.003175)
(-1.62179 0.103003 0.003175)
(-1.62179 0.104153 0.003175)
(-1.62179 0.105197 0.003175)
(-1.62179 0.106147 0.003175)
(-1.62179 0.10701 0.003175)
(-1.62179 0.107795 0.003175)
(-1.62179 0.108509 0.003175)
(-1.62179 0.109158 0.003175)
(-1.62179 0.109747 0.003175)
(-1.62179 0.110283 0.003175)
(-1.62179 0.110771 0.003175)
(-1.62179 0.111214 0.003175)
(-1.62179 0.111617 0.003175)
(-1.62179 0.111983 0.003175)
(-1.62179 0.112316 0.003175)
(-1.62179 0.112618 0.003175)
(-1.62179 0.112893 0.003175)
(-1.62179 0.113144 0.003175)
(-1.62179 0.113371 0.003175)
(-1.62179 0.113578 0.003175)
(-1.62179 0.113765 0.003175)
(-1.62179 0.113936 0.003175)
(-1.62179 0.114092 0.003175)
(-1.62179 0.114233 0.003175)
(-1.61925 0.00641723 0.003175)
(-1.61925 0.0065584 0.003175)
(-1.61925 0.00671369 0.003175)
(-1.61925 0.00688451 0.003175)
(-1.61925 0.00707241 0.003175)
(-1.61925 0.0072791 0.003175)
(-1.61925 0.00750646 0.003175)
(-1.61925 0.00775656 0.003175)
(-1.61925 0.00803167 0.003175)
(-1.61925 0.00833429 0.003175)
(-1.61925 0.00866717 0.003175)
(-1.61925 0.00903333 0.003175)
(-1.61925 0.00943612 0.003175)
(-1.61925 0.00987918 0.003175)
(-1.61925 0.0103665 0.003175)
(-1.61925 0.0109027 0.003175)
(-1.61925 0.0114924 0.003175)
(-1.61925 0.0121411 0.003175)
(-1.61925 0.0128546 0.003175)
(-1.61925 0.0136395 0.003175)
(-1.61925 0.0145029 0.003175)
(-1.61925 0.0154527 0.003175)
(-1.61925 0.0164974 0.003175)
(-1.61925 0.0176466 0.003175)
(-1.61925 0.0189107 0.003175)
(-1.61925 0.0203012 0.003175)
(-1.61925 0.0218308 0.003175)
(-1.61925 0.0235133 0.003175)
(-1.61925 0.0253641 0.003175)
(-1.61925 0.0274 0.003175)
(-1.61925 0.0296394 0.003175)
(-1.61925 0.0321028 0.003175)
(-1.61925 0.0348125 0.003175)
(-1.61925 0.0377932 0.003175)
(-1.61925 0.041072 0.003175)
(-1.61925 0.0446787 0.003175)
(-1.61925 0.048646 0.003175)
(-1.61925 0.05301 0.003175)
(-1.61925 0.0578105 0.003175)
(-1.61925 0.0628395 0.003175)
(-1.61925 0.06764 0.003175)
(-1.61925 0.072004 0.003175)
(-1.61925 0.0759713 0.003175)
(-1.61925 0.079578 0.003175)
(-1.61925 0.0828568 0.003175)
(-1.61925 0.0858375 0.003175)